<?xml version="1.0" encoding="UTF-8"?>

<!-- generated on Tue May 28 14:14:20 2019 by Eclipse SUMO netconvert Version 1.2.0
<configuration xmlns:xsi="http://www.w3.org/2001/XMLSchema-instance" xsi:noNamespaceSchemaLocation="http://sumo.dlr.de/xsd/netconvertConfiguration.xsd">

    <input>
        <sumo-net-file value="base_longtan.net.xml"/>
        <node-files value="drone.nod.xml"/>
        <edge-files value="drone.edg.xml"/>
    </input>

    <output>
        <output-file value="gaussian_drone.net.xml"/>
    </output>

    <processing>
        <geometry.max-grade.fix value="false"/>
        <offset.disable-normalization value="true"/>
        <lefthand value="false"/>
    </processing>

    <junctions>
        <no-turnarounds value="true"/>
        <junctions.corner-detail value="0"/>
        <junctions.limit-turn-speed value="-1"/>
        <rectangular-lane-cut value="false"/>
    </junctions>

    <pedestrian>
        <walkingareas value="false"/>
    </pedestrian>

</configuration>
-->

<net version="1.1" xmlns:xsi="http://www.w3.org/2001/XMLSchema-instance" xsi:noNamespaceSchemaLocation="http://sumo.dlr.de/xsd/net_file.xsd">

    <location netOffset="1123.53,5232.92" convBoundary="1139.09,5268.25,1562.62,5726.19" origBoundary="116.39,39.84,116.44,39.91" projParameter="!"/>

    <type id="highway.bridleway" priority="1" numLanes="1" speed="2.78" allow="pedestrian" oneway="1" width="2.00"/>
    <type id="highway.bus_guideway" priority="1" numLanes="1" speed="8.33" allow="bus" oneway="1"/>
    <type id="highway.cycleway" priority="1" numLanes="1" speed="5.56" allow="bicycle" oneway="0" width="1.00"/>
    <type id="highway.footway" priority="1" numLanes="1" speed="2.78" allow="pedestrian" oneway="1" width="2.00"/>
    <type id="highway.ford" priority="1" numLanes="1" speed="2.78" allow="army" oneway="0"/>
    <type id="highway.living_street" priority="3" numLanes="1" speed="2.78" disallow="tram rail_urban rail rail_electric ship" oneway="0"/>
    <type id="highway.motorway" priority="13" numLanes="2" speed="44.44" allow="private emergency authority army vip passenger hov taxi bus coach delivery truck trailer motorcycle evehicle custom1 custom2" oneway="1"/>
    <type id="highway.motorway_link" priority="12" numLanes="1" speed="22.22" allow="private emergency authority army vip passenger hov taxi bus coach delivery truck trailer motorcycle evehicle custom1 custom2" oneway="1"/>
    <type id="highway.path" priority="1" numLanes="1" speed="2.78" allow="bicycle pedestrian" oneway="1" width="2.00"/>
    <type id="highway.pedestrian" priority="1" numLanes="1" speed="2.78" allow="pedestrian" oneway="1" width="2.00"/>
    <type id="highway.primary" priority="9" numLanes="2" speed="27.78" disallow="tram rail_urban rail rail_electric ship" oneway="0"/>
    <type id="highway.primary_link" priority="8" numLanes="1" speed="22.22" disallow="tram rail_urban rail rail_electric ship" oneway="0"/>
    <type id="highway.raceway" priority="14" numLanes="2" speed="83.33" allow="vip" oneway="0"/>
    <type id="highway.residential" priority="4" numLanes="1" speed="13.89" disallow="tram rail_urban rail rail_electric ship" oneway="0"/>
    <type id="highway.secondary" priority="7" numLanes="2" speed="27.78" disallow="tram rail_urban rail rail_electric ship" oneway="0"/>
    <type id="highway.secondary_link" priority="6" numLanes="1" speed="22.22" disallow="tram rail_urban rail rail_electric ship" oneway="0"/>
    <type id="highway.service" priority="2" numLanes="1" speed="5.56" allow="delivery bicycle pedestrian" oneway="0"/>
    <type id="highway.services" priority="1" numLanes="1" speed="8.33" disallow="tram rail_urban rail rail_electric ship" oneway="0"/>
    <type id="highway.stairs" priority="1" numLanes="1" speed="1.39" allow="pedestrian" oneway="1" width="2.00"/>
    <type id="highway.step" priority="1" numLanes="1" speed="1.39" allow="pedestrian" oneway="1" width="2.00"/>
    <type id="highway.steps" priority="1" numLanes="1" speed="1.39" allow="pedestrian" oneway="1" width="2.00"/>
    <type id="highway.tertiary" priority="6" numLanes="1" speed="22.22" disallow="tram rail_urban rail rail_electric ship" oneway="0"/>
    <type id="highway.tertiary_link" priority="5" numLanes="1" speed="22.22" disallow="tram rail_urban rail rail_electric ship" oneway="0"/>
    <type id="highway.track" priority="1" numLanes="1" speed="5.56" disallow="tram rail_urban rail rail_electric ship" oneway="0"/>
    <type id="highway.trunk" priority="11" numLanes="2" speed="27.78" disallow="tram rail_urban rail rail_electric bicycle pedestrian ship" oneway="0"/>
    <type id="highway.trunk_link" priority="10" numLanes="1" speed="22.22" disallow="tram rail_urban rail rail_electric bicycle pedestrian ship" oneway="0"/>
    <type id="highway.unclassified" priority="5" numLanes="1" speed="13.89" disallow="tram rail_urban rail rail_electric ship" oneway="0"/>
    <type id="highway.unsurfaced" priority="1" numLanes="1" speed="8.33" disallow="tram rail_urban rail rail_electric ship" oneway="0"/>
    <type id="railway.light_rail" priority="15" numLanes="1" speed="27.78" allow="rail_urban" oneway="1"/>
    <type id="railway.preserved" priority="15" numLanes="1" speed="27.78" allow="rail" oneway="1"/>
    <type id="railway.rail" priority="15" numLanes="1" speed="83.33" allow="rail rail_electric" oneway="1"/>
    <type id="railway.subway" priority="15" numLanes="1" speed="27.78" allow="rail_urban" oneway="1"/>
    <type id="railway.tram" priority="15" numLanes="1" speed="13.89" allow="tram" oneway="1"/>

    <edge id=":1598502588_w0" function="walkingarea">
        <lane id=":1598502588_w0_0" index="0" allow="pedestrian" speed="1.00" length="8.40" width="2.00" shape="1455.61,5268.43 1457.61,5268.55 1447.23,5267.95 1449.23,5268.07"/>
    </edge>
    <edge id=":322120566_0" function="internal">
        <lane id=":322120566_0_0" index="0" disallow="tram rail_urban rail rail_electric pedestrian ship" speed="22.22" length="14.18" shape="1468.94,5721.87 1454.78,5721.22"/>
    </edge>
    <edge id=":322120566_1" function="internal">
        <lane id=":322120566_1_0" index="0" disallow="tram rail_urban rail rail_electric pedestrian ship" speed="18.05" length="5.59" shape="1468.94,5721.87 1465.27,5721.09 1463.76,5720.03"/>
    </edge>
    <edge id=":322120566_6" function="internal">
        <lane id=":322120566_6_0" index="0" disallow="tram rail_urban rail rail_electric pedestrian ship" speed="18.05" length="8.55" shape="1463.76,5720.03 1462.66,5719.26 1461.10,5716.40 1460.59,5712.50"/>
    </edge>
    <edge id=":322120566_2" function="internal">
        <lane id=":322120566_2_0" index="0" disallow="tram rail_urban rail rail_electric pedestrian ship" speed="18.05" length="9.20" shape="1463.79,5712.51 1464.11,5715.08 1465.12,5716.97 1466.79,5718.17 1469.15,5718.68"/>
    </edge>
    <edge id=":322120566_3" function="internal">
        <lane id=":322120566_3_0" index="0" disallow="tram rail_urban rail rail_electric pedestrian ship" speed="18.05" length="14.38" shape="1463.79,5712.51 1463.21,5716.42 1461.52,5719.18 1458.71,5720.78 1454.78,5721.22"/>
    </edge>
    <edge id=":322120566_4" function="internal">
        <lane id=":322120566_4_0" index="0" disallow="tram rail_urban rail rail_electric pedestrian ship" speed="18.05" length="4.83" shape="1454.87,5718.02 1457.37,5717.74 1459.15,5716.73 1459.29,5716.49"/>
    </edge>
    <edge id=":322120566_5" function="internal">
        <lane id=":322120566_5_0" index="0" disallow="tram rail_urban rail rail_electric pedestrian ship" speed="22.22" length="14.29" shape="1454.87,5718.02 1469.15,5718.68"/>
    </edge>
    <edge id=":322120566_7" function="internal">
        <lane id=":322120566_7_0" index="0" disallow="tram rail_urban rail rail_electric pedestrian ship" speed="18.05" length="4.28" shape="1459.29,5716.49 1460.22,5714.98 1460.59,5712.50"/>
    </edge>
    <edge id=":322120566_c0" function="crossing" crossingEdges="L0 L00">
        <lane id=":322120566_c0_0" index="0" allow="pedestrian" speed="1.00" length="6.40" width="4.00" shape="1467.25,5716.96 1466.85,5723.34"/>
    </edge>
    <edge id=":322120566_c1" function="crossing" crossingEdges="L14 L41">
        <lane id=":322120566_c1_0" index="0" allow="pedestrian" speed="1.00" length="6.40" width="4.00" shape="1458.98,5714.49 1465.38,5714.51"/>
    </edge>
    <edge id=":322120566_c2" function="crossing" crossingEdges="L01 L1">
        <lane id=":322120566_c2_0" index="0" allow="pedestrian" speed="1.00" length="6.40" width="4.00" shape="1456.73,5722.88 1456.92,5716.48"/>
    </edge>
    <edge id=":322120566_w0" function="walkingarea">
        <lane id=":322120566_w0_0" index="0" allow="pedestrian" speed="1.00" length="8.83" width="4.00" shape="1458.73,5722.94 1454.73,5722.82 1454.67,5724.82 1468.71,5725.47 1468.84,5723.47 1464.85,5723.22"/>
    </edge>
    <edge id=":322120566_w1" function="walkingarea">
        <lane id=":322120566_w1_0" index="0" allow="pedestrian" speed="1.00" length="3.49" width="4.00" shape="1465.25,5716.83 1469.25,5717.08 1469.37,5715.09 1467.39,5712.52 1465.39,5712.51 1465.37,5716.51"/>
    </edge>
    <edge id=":322120566_w2" function="walkingarea">
        <lane id=":322120566_w2_0" index="0" allow="pedestrian" speed="1.00" length="3.31" width="4.00" shape="1458.97,5716.49 1458.99,5712.49 1456.99,5712.49 1454.98,5714.43 1454.92,5716.43 1458.92,5716.54"/>
    </edge>
    <edge id=":4715671916_0" function="internal">
        <lane id=":4715671916_0_0" index="0" disallow="tram rail_urban rail rail_electric pedestrian ship" speed="13.89" length="14.73" shape="1382.02,5527.43 1381.92,5542.16"/>
    </edge>
    <edge id=":4715671916_1" function="internal">
        <lane id=":4715671916_1_0" index="0" disallow="tram rail_urban rail rail_electric pedestrian ship" speed="13.89" length="5.21" shape="1382.02,5527.43 1381.40,5530.77 1380.39,5532.28"/>
    </edge>
    <edge id=":4715671916_6" function="internal">
        <lane id=":4715671916_6_0" index="0" disallow="tram rail_urban rail rail_electric pedestrian ship" speed="13.89" length="9.63" shape="1380.39,5532.28 1379.57,5533.50 1376.55,5535.61 1372.33,5537.10"/>
    </edge>
    <edge id=":4715671916_2" function="internal">
        <lane id=":4715671916_2_0" index="0" disallow="tram rail_urban rail rail_electric pedestrian ship" speed="13.89" length="10.58" shape="1371.57,5534.00 1374.73,5532.92 1376.99,5531.46 1378.35,5529.63 1378.82,5527.41"/>
    </edge>
    <edge id=":4715671916_3" function="internal">
        <lane id=":4715671916_3_0" index="0" disallow="tram rail_urban rail rail_electric pedestrian ship" speed="13.89" length="16.09" shape="1371.57,5534.00 1376.12,5533.54 1379.37,5534.75 1381.30,5537.63 1381.92,5542.16"/>
    </edge>
    <edge id=":4715671916_4" function="internal">
        <lane id=":4715671916_4_0" index="0" disallow="tram rail_urban rail rail_electric pedestrian ship" speed="13.89" length="5.65" shape="1378.72,5542.14 1378.34,5539.34 1377.15,5537.57 1376.51,5537.33"/>
    </edge>
    <edge id=":4715671916_5" function="internal">
        <lane id=":4715671916_5_0" index="0" disallow="tram rail_urban rail rail_electric pedestrian ship" speed="13.89" length="14.73" shape="1378.72,5542.14 1378.82,5527.41"/>
    </edge>
    <edge id=":4715671916_7" function="internal">
        <lane id=":4715671916_7_0" index="0" disallow="tram rail_urban rail rail_electric pedestrian ship" speed="13.89" length="4.28" shape="1376.51,5537.33 1375.14,5536.82 1372.33,5537.10"/>
    </edge>
    <edge id=":4715671916_c0" function="crossing" crossingEdges="L011 L11#H">
        <lane id=":4715671916_c0_0" index="0" allow="pedestrian" speed="1.00" length="6.40" width="4.00" shape="1374.66,5538.18 1373.12,5531.96"/>
    </edge>
    <edge id=":4715671916_w0" function="walkingarea">
        <lane id=":4715671916_w0_0" index="0" allow="pedestrian" speed="1.00" length="14.73" width="2.00" shape="1383.52,5542.17 1385.52,5542.19 1385.62,5527.46 1383.62,5527.44"/>
    </edge>
    <edge id=":4715671916_w1" function="walkingarea">
        <lane id=":4715671916_w1_0" index="0" allow="pedestrian" speed="1.00" length="4.81" width="4.00" shape="1377.22,5527.40 1375.22,5527.39 1370.70,5530.50 1371.18,5532.44 1375.07,5531.49"/>
    </edge>
    <edge id=":4715671916_w2" function="walkingarea">
        <lane id=":4715671916_w2_0" index="0" allow="pedestrian" speed="1.00" length="3.49" width="4.00" shape="1376.60,5537.70 1372.72,5538.66 1373.20,5540.60 1375.12,5542.12 1377.12,5542.13"/>
    </edge>
    <edge id=":534083607_0" function="internal">
        <lane id=":534083607_0_0" index="0" disallow="tram rail_urban rail rail_electric pedestrian ship" speed="13.89" length="9.53" shape="1447.42,5338.35 1447.01,5335.66 1445.93,5333.71 1444.18,5332.52 1441.76,5332.08"/>
    </edge>
    <edge id=":534083607_1" function="internal">
        <lane id=":534083607_1_0" index="0" disallow="tram rail_urban rail rail_electric pedestrian ship" speed="13.89" length="14.97" shape="1447.42,5338.35 1447.65,5323.38"/>
    </edge>
    <edge id=":534083607_2" function="internal">
        <lane id=":534083607_2_0" index="0" disallow="tram rail_urban rail rail_electric pedestrian ship" speed="13.89" length="14.81" shape="1447.42,5338.35 1447.91,5334.27 1449.59,5331.44 1452.48,5329.85 1456.58,5329.51"/>
    </edge>
    <edge id=":534083607_3" function="internal">
        <lane id=":534083607_3_0" index="0" disallow="tram rail_urban rail rail_electric pedestrian ship" speed="13.89" length="5.03" shape="1456.38,5332.71 1453.81,5332.92 1451.99,5333.92 1451.80,5334.24"/>
    </edge>
    <edge id=":534083607_4" function="internal">
        <lane id=":534083607_4_0" index="0" disallow="tram rail_urban rail rail_electric pedestrian ship" speed="13.89" length="14.64" shape="1456.38,5332.71 1441.76,5332.08"/>
    </edge>
    <edge id=":534083607_5" function="internal">
        <lane id=":534083607_5_0" index="0" disallow="tram rail_urban rail rail_electric pedestrian ship" speed="13.89" length="6.02" shape="1456.38,5332.71 1452.37,5331.92 1450.75,5330.86"/>
    </edge>
    <edge id=":534083607_12" function="internal">
        <lane id=":534083607_12_0" index="0" disallow="tram rail_urban rail rail_electric pedestrian ship" speed="13.89" length="4.29" shape="1451.80,5334.24 1450.93,5335.70 1450.62,5338.27"/>
    </edge>
    <edge id=":534083607_13" function="internal">
        <lane id=":534083607_13_0" index="0" disallow="tram rail_urban rail rail_electric pedestrian ship" speed="13.89" length="8.54" shape="1450.75,5330.86 1449.58,5330.10 1448.00,5327.25 1447.65,5323.38"/>
    </edge>
    <edge id=":534083607_6" function="internal">
        <lane id=":534083607_6_0" index="0" disallow="tram rail_urban rail rail_electric pedestrian ship" speed="13.89" length="9.41" shape="1450.84,5323.57 1451.08,5326.03 1452.11,5327.85 1453.95,5329.01 1456.58,5329.51"/>
    </edge>
    <edge id=":534083607_7" function="internal">
        <lane id=":534083607_7_0" index="0" disallow="tram rail_urban rail rail_electric pedestrian ship" speed="13.89" length="14.70" shape="1450.84,5323.57 1450.62,5338.27"/>
    </edge>
    <edge id=":534083607_8" function="internal">
        <lane id=":534083607_8_0" index="0" disallow="tram rail_urban rail rail_electric pedestrian ship" speed="13.89" length="14.09" shape="1450.84,5323.57 1450.08,5327.37 1448.32,5330.06 1445.55,5331.62 1441.76,5332.08"/>
    </edge>
    <edge id=":534083607_9" function="internal">
        <lane id=":534083607_9_0" index="0" disallow="tram rail_urban rail rail_electric pedestrian ship" speed="13.89" length="4.79" shape="1441.84,5328.88 1444.26,5328.59 1446.03,5327.57 1446.20,5327.31"/>
    </edge>
    <edge id=":534083607_10" function="internal">
        <lane id=":534083607_10_0" index="0" disallow="tram rail_urban rail rail_electric pedestrian ship" speed="13.89" length="14.75" shape="1441.84,5328.88 1456.58,5329.51"/>
    </edge>
    <edge id=":534083607_11" function="internal">
        <lane id=":534083607_11_0" index="0" disallow="tram rail_urban rail rail_electric pedestrian ship" speed="13.89" length="5.95" shape="1441.84,5328.88 1445.60,5329.54 1447.38,5330.72"/>
    </edge>
    <edge id=":534083607_14" function="internal">
        <lane id=":534083607_14_0" index="0" disallow="tram rail_urban rail rail_electric pedestrian ship" speed="13.89" length="4.26" shape="1446.20,5327.31 1447.16,5325.84 1447.65,5323.38"/>
    </edge>
    <edge id=":534083607_15" function="internal">
        <lane id=":534083607_15_0" index="0" disallow="tram rail_urban rail rail_electric pedestrian ship" speed="13.89" length="8.55" shape="1447.38,5330.72 1448.31,5331.33 1449.99,5334.24 1450.62,5338.27"/>
    </edge>
    <edge id=":534083607_c0" function="crossing" crossingEdges="L21 L12">
        <lane id=":534083607_c0_0" index="0" allow="pedestrian" speed="1.00" length="6.40" width="4.00" shape="1452.17,5336.23 1445.77,5336.39"/>
    </edge>
    <edge id=":534083607_c1" function="crossing" crossingEdges="L100 L0100">
        <lane id=":534083607_c1_0" index="0" allow="pedestrian" speed="1.00" length="6.40" width="4.00" shape="1454.68,5327.80 1454.29,5334.19"/>
    </edge>
    <edge id=":534083607_c2" function="crossing" crossingEdges="L11# L11#V">
        <lane id=":534083607_c2_0" index="0" allow="pedestrian" speed="1.00" length="6.40" width="4.00" shape="1445.93,5325.29 1452.32,5325.66"/>
    </edge>
    <edge id=":534083607_c3" function="crossing" crossingEdges="L016 L16#H">
        <lane id=":534083607_c3_0" index="0" allow="pedestrian" speed="1.00" length="6.40" width="4.00" shape="1443.72,5333.73 1443.88,5327.33"/>
    </edge>
    <edge id=":534083607_w0" function="walkingarea">
        <lane id=":534083607_w0_0" index="0" allow="pedestrian" speed="1.00" length="3.66" width="4.00" shape="1445.72,5333.77 1441.72,5333.68 1441.67,5335.68 1443.82,5338.44 1445.82,5338.39 1445.72,5334.39"/>
    </edge>
    <edge id=":534083607_w1" function="walkingarea">
        <lane id=":534083607_w1_0" index="0" allow="pedestrian" speed="1.00" length="3.32" width="4.00" shape="1452.12,5334.23 1452.22,5338.23 1454.22,5338.18 1456.17,5336.30 1456.29,5334.31 1452.29,5334.06"/>
    </edge>
    <edge id=":534083607_w2" function="walkingarea">
        <lane id=":534083607_w2_0" index="0" allow="pedestrian" speed="1.00" length="3.52" width="4.00" shape="1452.68,5327.68 1456.67,5327.92 1456.79,5325.92 1454.43,5323.78 1452.44,5323.66 1452.21,5327.65"/>
    </edge>
    <edge id=":534083607_w3" function="walkingarea">
        <lane id=":534083607_w3_0" index="0" allow="pedestrian" speed="1.00" length="3.36" width="4.00" shape="1445.82,5327.29 1446.05,5323.29 1444.05,5323.18 1441.93,5325.28 1441.88,5327.28 1445.88,5327.38"/>
    </edge>
    <edge id=":5810291997_w0" function="walkingarea">
        <lane id=":5810291997_w0_0" index="0" allow="pedestrian" speed="1.00" length="8.40" width="2.00" shape="1562.62,5725.21 1562.62,5727.21 1562.62,5716.81 1562.62,5718.81"/>
    </edge>
    <edge id=":734520210_0" function="internal">
        <lane id=":734520210_0_0" index="0" disallow="tram rail_urban rail rail_electric pedestrian ship" speed="13.89" length="12.18" shape="1341.65,5409.34 1338.21,5408.27 1335.78,5407.77 1333.30,5407.64 1329.69,5407.65"/>
    </edge>
    <edge id=":734520210_1" function="internal">
        <lane id=":734520210_1_0" index="0" disallow="tram rail_urban rail rail_electric pedestrian ship" speed="13.89" length="5.11" shape="1341.65,5409.34 1338.79,5407.88 1337.50,5406.48"/>
    </edge>
    <edge id=":734520210_6" function="internal">
        <lane id=":734520210_6_0" index="0" disallow="tram rail_urban rail rail_electric pedestrian ship" speed="13.89" length="8.04" shape="1337.50,5406.48 1336.76,5405.66 1335.57,5402.70 1335.21,5398.98"/>
    </edge>
    <edge id=":734520210_2" function="internal">
        <lane id=":734520210_2_0" index="0" disallow="tram rail_urban rail rail_electric pedestrian ship" speed="13.89" length="9.07" shape="1338.41,5399.03 1338.64,5401.67 1339.43,5403.77 1340.76,5405.31 1342.66,5406.30"/>
    </edge>
    <edge id=":734520210_3" function="internal">
        <lane id=":734520210_3_0" index="0" disallow="tram rail_urban rail rail_electric pedestrian ship" speed="13.89" length="13.93" shape="1338.41,5399.03 1337.81,5402.79 1336.16,5405.48 1333.45,5407.10 1329.69,5407.65"/>
    </edge>
    <edge id=":734520210_4" function="internal">
        <lane id=":734520210_4_0" index="0" disallow="tram rail_urban rail rail_electric pedestrian ship" speed="13.89" length="4.55" shape="1329.67,5404.45 1332.06,5404.10 1333.78,5403.07 1333.85,5402.96"/>
    </edge>
    <edge id=":734520210_5" function="internal">
        <lane id=":734520210_5_0" index="0" disallow="tram rail_urban rail rail_electric pedestrian ship" speed="13.89" length="13.22" shape="1329.67,5404.45 1333.59,5404.44 1336.29,5404.59 1338.92,5405.14 1342.66,5406.30"/>
    </edge>
    <edge id=":734520210_7" function="internal">
        <lane id=":734520210_7_0" index="0" disallow="tram rail_urban rail rail_electric pedestrian ship" speed="13.89" length="4.29" shape="1333.85,5402.96 1334.83,5401.36 1335.21,5398.98"/>
    </edge>
    <edge id=":734520210_c0" function="crossing" crossingEdges="L17 L71">
        <lane id=":734520210_c0_0" index="0" allow="pedestrian" speed="1.00" length="6.40" width="4.00" shape="1333.58,5400.95 1339.98,5401.05"/>
    </edge>
    <edge id=":734520210_w0" function="walkingarea">
        <lane id=":734520210_w0_0" index="0" allow="pedestrian" speed="1.00" length="11.25" width="2.00" shape="1329.69,5409.25 1329.70,5411.25 1340.53,5412.76 1341.15,5410.86"/>
    </edge>
    <edge id=":734520210_w1" function="walkingarea">
        <lane id=":734520210_w1_0" index="0" allow="pedestrian" speed="1.00" length="4.02" width="4.00" shape="1343.16,5404.78 1343.78,5402.88 1342.01,5399.08 1340.01,5399.05 1339.95,5403.05"/>
    </edge>
    <edge id=":734520210_w2" function="walkingarea">
        <lane id=":734520210_w2_0" index="0" allow="pedestrian" speed="1.00" length="3.47" width="4.00" shape="1333.55,5402.95 1333.61,5398.95 1331.61,5398.92 1329.66,5400.85 1329.67,5402.85"/>
    </edge>
    <edge id=":734520243_0" function="internal">
        <lane id=":734520243_0_0" index="0" disallow="tram rail_urban rail rail_electric pedestrian ship" speed="13.89" length="15.68" shape="1455.92,5572.00 1454.96,5567.45 1454.40,5564.31 1454.07,5561.14 1453.83,5556.49"/>
    </edge>
    <edge id=":734520243_1" function="internal">
        <lane id=":734520243_1_0" index="0" disallow="tram rail_urban rail rail_electric pedestrian ship" speed="13.89" length="6.31" shape="1455.92,5572.00 1455.63,5567.47 1456.30,5565.84"/>
    </edge>
    <edge id=":734520243_6" function="internal">
        <lane id=":734520243_6_0" index="0" disallow="tram rail_urban rail rail_electric pedestrian ship" speed="13.89" length="9.67" shape="1456.30,5565.84 1456.94,5564.28 1459.85,5562.43 1464.36,5561.91"/>
    </edge>
    <edge id=":734520243_2" function="internal">
        <lane id=":734520243_2_0" index="0" disallow="tram rail_urban rail rail_electric pedestrian ship" speed="13.89" length="9.88" shape="1464.27,5565.11 1461.48,5565.43 1459.68,5566.57 1458.87,5568.55 1459.05,5571.35"/>
    </edge>
    <edge id=":734520243_3" function="internal">
        <lane id=":734520243_3_0" index="0" disallow="tram rail_urban rail rail_electric pedestrian ship" speed="13.89" length="15.16" shape="1464.27,5565.11 1459.83,5564.46 1456.62,5562.81 1454.62,5560.15 1453.83,5556.49"/>
    </edge>
    <edge id=":734520243_4" function="internal">
        <lane id=":734520243_4_0" index="0" disallow="tram rail_urban rail rail_electric pedestrian ship" speed="13.89" length="6.18" shape="1457.03,5556.36 1457.57,5558.71 1458.98,5560.42 1460.38,5561.08"/>
    </edge>
    <edge id=":734520243_5" function="internal">
        <lane id=":734520243_5_0" index="0" disallow="tram rail_urban rail rail_electric pedestrian ship" speed="13.89" length="15.16" shape="1457.03,5556.36 1457.26,5560.85 1457.58,5563.91 1458.12,5566.94 1459.05,5571.35"/>
    </edge>
    <edge id=":734520243_7" function="internal">
        <lane id=":734520243_7_0" index="0" disallow="tram rail_urban rail rail_electric pedestrian ship" speed="13.89" length="4.10" shape="1460.38,5561.08 1461.24,5561.49 1464.36,5561.91"/>
    </edge>
    <edge id=":734520243_c0" function="crossing" crossingEdges="L5 L05">
        <lane id=":734520243_c0_0" index="0" allow="pedestrian" speed="1.00" length="6.40" width="4.00" shape="1462.41,5560.25 1462.22,5566.65"/>
    </edge>
    <edge id=":734520243_w0" function="walkingarea">
        <lane id=":734520243_w0_0" index="0" allow="pedestrian" speed="1.00" length="16.08" width="2.00" shape="1452.23,5556.56 1450.24,5556.64 1452.39,5572.74 1454.35,5572.33"/>
    </edge>
    <edge id=":734520243_w1" function="walkingarea">
        <lane id=":734520243_w1_0" index="0" allow="pedestrian" speed="1.00" length="3.50" width="4.00" shape="1460.61,5571.02 1462.57,5570.61 1464.16,5568.71 1464.22,5566.71 1460.22,5566.59"/>
    </edge>
    <edge id=":734520243_w2" function="walkingarea">
        <lane id=":734520243_w2_0" index="0" allow="pedestrian" speed="1.00" length="4.27" width="4.00" shape="1460.41,5560.20 1464.41,5560.31 1464.47,5558.31 1460.63,5556.21 1458.63,5556.29"/>
    </edge>
    <edge id=":734520393_0" function="internal">
        <lane id=":734520393_0_0" index="0" disallow="tram rail_urban rail rail_electric pedestrian ship" speed="13.89" length="14.78" shape="1236.76,5413.67 1237.04,5398.89"/>
    </edge>
    <edge id=":734520393_1" function="internal">
        <lane id=":734520393_1_0" index="0" disallow="tram rail_urban rail rail_electric pedestrian ship" speed="13.89" length="6.18" shape="1236.76,5413.67 1237.29,5409.80 1238.47,5407.85"/>
    </edge>
    <edge id=":734520393_6" function="internal">
        <lane id=":734520393_6_0" index="0" disallow="tram rail_urban rail rail_electric pedestrian ship" speed="13.89" length="8.24" shape="1238.47,5407.85 1238.97,5407.03 1241.79,5405.36 1245.75,5404.79"/>
    </edge>
    <edge id=":734520393_2" function="internal">
        <lane id=":734520393_2_0" index="0" disallow="tram rail_urban rail rail_electric pedestrian ship" speed="13.89" length="9.24" shape="1245.76,5407.99 1243.20,5408.35 1241.38,5409.41 1240.30,5411.17 1239.96,5413.63"/>
    </edge>
    <edge id=":734520393_3" function="internal">
        <lane id=":734520393_3_0" index="0" disallow="tram rail_urban rail rail_electric pedestrian ship" speed="13.89" length="14.55" shape="1245.76,5407.99 1241.79,5407.43 1239.01,5405.73 1237.42,5402.88 1237.04,5398.89"/>
    </edge>
    <edge id=":734520393_4" function="internal">
        <lane id=":734520393_4_0" index="0" disallow="tram rail_urban rail rail_electric pedestrian ship" speed="13.89" length="4.91" shape="1240.23,5399.03 1240.48,5401.56 1241.48,5403.36 1241.75,5403.53"/>
    </edge>
    <edge id=":734520393_5" function="internal">
        <lane id=":734520393_5_0" index="0" disallow="tram rail_urban rail rail_electric pedestrian ship" speed="13.89" length="14.60" shape="1240.23,5399.03 1239.96,5413.63"/>
    </edge>
    <edge id=":734520393_7" function="internal">
        <lane id=":734520393_7_0" index="0" disallow="tram rail_urban rail rail_electric pedestrian ship" speed="13.89" length="4.29" shape="1241.75,5403.53 1243.24,5404.44 1245.75,5404.79"/>
    </edge>
    <edge id=":734520393_c0" function="crossing" crossingEdges="L14#H L014">
        <lane id=":734520393_c0_0" index="0" allow="pedestrian" speed="1.00" length="6.40" width="4.00" shape="1243.74,5403.20 1243.77,5409.60"/>
    </edge>
    <edge id=":734520393_c1" function="crossing" crossingEdges="L15#H L015">
        <lane id=":734520393_c1_0" index="0" allow="pedestrian" speed="1.00" length="6.40" width="4.00" shape="1235.35,5400.81 1241.74,5401.11"/>
    </edge>
    <edge id=":734520393_w0" function="walkingarea">
        <lane id=":734520393_w0_0" index="0" allow="pedestrian" speed="1.00" length="10.03" width="4.00" shape="1235.25,5402.81 1235.44,5398.81 1233.44,5398.72 1233.16,5413.70 1235.16,5413.68"/>
    </edge>
    <edge id=":734520393_w1" function="walkingarea">
        <lane id=":734520393_w1_0" index="0" allow="pedestrian" speed="1.00" length="3.61" width="4.00" shape="1241.56,5413.62 1243.56,5413.60 1245.78,5411.59 1245.77,5409.59 1241.77,5409.61"/>
    </edge>
    <edge id=":734520393_w2" function="walkingarea">
        <lane id=":734520393_w2_0" index="0" allow="pedestrian" speed="1.00" length="3.31" width="4.00" shape="1241.74,5403.21 1245.74,5403.19 1245.74,5401.19 1243.83,5399.20 1241.83,5399.11 1241.65,5403.10"/>
    </edge>
    <edge id=":734520414_0" function="internal">
        <lane id=":734520414_0_0" index="0" disallow="tram rail_urban rail rail_electric pedestrian ship" speed="13.89" length="14.85" shape="1234.67,5547.09 1234.96,5532.24"/>
    </edge>
    <edge id=":734520414_1" function="internal">
        <lane id=":734520414_1_0" index="0" disallow="tram rail_urban rail rail_electric pedestrian ship" speed="13.89" length="6.23" shape="1234.67,5547.09 1235.19,5543.21 1236.39,5541.22"/>
    </edge>
    <edge id=":734520414_6" function="internal">
        <lane id=":734520414_6_0" index="0" disallow="tram rail_urban rail rail_electric pedestrian ship" speed="13.89" length="8.23" shape="1236.39,5541.22 1236.86,5540.43 1239.69,5538.75 1243.67,5538.17"/>
    </edge>
    <edge id=":734520414_2" function="internal">
        <lane id=":734520414_2_0" index="0" disallow="tram rail_urban rail rail_electric pedestrian ship" speed="13.89" length="9.27" shape="1243.69,5541.37 1241.11,5541.74 1239.29,5542.81 1238.21,5544.57 1237.87,5547.04"/>
    </edge>
    <edge id=":734520414_3" function="internal">