<?xml version="1.0" encoding="UTF-8"?>
<!-- generated on 2019-06-04 09:56:16.991610 by $Id$
  options: <doubleminus>pedestrians -n base_longtan.net.xml -o longtan_pedestrian.rou.xml <doubleminus>max-distance 200 -b 0 -e 55000 -p 4.5 <doubleminus>prefix ped
-->
<routes xmlns:xsi="http://www.w3.org/2001/XMLSchema-instance" xsi:noNamespaceSchemaLocation="http://sumo.dlr.de/xsd/routes_file.xsd">
    <person id="ped0" depart="0.00">
        <walk from="L111#" to="L09"/>
    </person>
    <person id="ped1" depart="4.50">
        <walk from="L13#H" to="L115"/>
    </person>
    <person id="ped2" depart="9.00">
        <walk from="L51" to="L06"/>
    </person>
    <person id="ped3" depart="13.50">
        <walk from="L013" to="L015"/>
    </person>
    <person id="ped4" depart="18.00">
        <walk from="L119" to="L010"/>
    </person>
    <person id="ped5" depart="22.50">
        <walk from="L81" to="L31"/>
    </person>
    <person id="ped6" depart="27.00">
        <walk from="L91" to="L71"/>
    </person>
    <person id="ped7" depart="31.50">
        <walk from="L013" to="L117"/>
    </person>
    <person id="ped8" depart="36.00">
        <walk from="L11#H" to="L16"/>
    </person>
    <person id="ped9" depart="40.50">
        <walk from="L81" to="L121"/>
    </person>
    <person id="ped10" depart="45.00">
        <walk from="L12#H" to="L161"/>
    </person>
    <person id="ped11" depart="49.50">
        <walk from="L51" to="L13#H"/>
    </person>
    <person id="ped12" depart="54.00">
        <walk from="L00" to="L00"/>
    </person>
    <person id="ped13" depart="58.50">
        <walk from="L013" to="L117"/>
    </person>
    <person id="ped14" depart="63.00">
        <walk from="L00" to="L0"/>
    </person>
    <person id="ped15" depart="67.50">
        <walk from="L014" to="L15#H"/>
    </person>
    <person id="ped16" depart="72.00">
        <walk from="L12" to="L014"/>
    </person>
    <person id="ped17" depart="76.50">
        <walk from="L71" to="L181"/>
    </person>
    <person id="ped18" depart="81.00">
        <walk from="L012" to="L100"/>
    </person>
    <person id="ped19" depart="85.50">
        <walk from="L015" to="L16"/>
    </person>
    <person id="ped20" depart="90.00">
        <walk from="L171" to="L151"/>
    </person>
    <person id="ped21" depart="94.50">
        <walk from="L09" to="L110"/>
    </person>
    <person id="ped22" depart="99.00">
        <walk from="L112" to="L19"/>
    </person>
    <person id="ped23" depart="103.50">
        <walk from="L115" to="L18"/>
    </person>
    <person id="ped24" depart="108.00">
        <walk from="L013" to="L151"/>
    </person>
    <person id="ped25" depart="112.50">
        <walk from="L17" to="L18"/>
    </person>
    <person id="ped26" depart="117.00">
        <walk from="L71" to="L18"/>
    </person>
    <person id="ped27" depart="121.50">
        <walk from="L116" to="L012"/>
    </person>
    <person id="ped28" depart="126.00">
        <walk from="L112" to="L2"/>
    </person>
    <person id="ped29" depart="130.50">
        <walk from="L3" to="L8"/>
    </person>
    <person id="ped30" depart="135.00">
        <walk from="L012" to="L016"/>
    </person>
    <person id="ped31" depart="139.50">
        <walk from="L141" to="L117"/>
    </person>
    <person id="ped32" depart="144.00">
        <walk from="L111#" to="L131"/>
    </person>
    <person id="ped33" depart="148.50">
        <walk from="L18" to="L06"/>
    </person>
    <person id="ped34" depart="153.00">
        <walk from="L51" to="L61"/>
    </person>
    <person id="ped35" depart="157.50">
        <walk from="L151" to="L09"/>
    </person>
    <person id="ped36" depart="162.00">
        <walk from="L012" to="L101"/>
    </person>
    <person id="ped37" depart="166.50">
        <walk from="L1" to="L03"/>
    </person>
    <person id="ped38" depart="171.00">
        <walk from="L61" to="L61"/>
    </person>
    <person id="ped39" depart="175.50">
        <walk from="L191" to="L09"/>
    </person>
    <person id="ped40" depart="180.00">
        <walk from="L91" to="L015"/>
    </person>
    <person id="ped41" depart="184.50">
        <walk from="L0" to="L08"/>
    </person>
    <person id="ped42" depart="189.00">
        <walk from="L12" to="L06"/>
    </person>
    <person id="ped43" depart="193.50">
        <walk from="L131" to="L131"/>
    </person>
    <person id="ped44" depart="198.00">
        <walk from="L114" to="L8"/>
    </person>
    <person id="ped45" depart="202.50">
        <walk from="L61" to="L141"/>
    </person>
    <person id="ped46" depart="207.00">
        <walk from="L13" to="L08"/>
    </person>
    <person id="ped47" depart="211.50">
        <walk from="L013" to="L06"/>
    </person>
    <person id="ped48" depart="216.00">
        <walk from="L71" to="L116"/>
    </person>
    <person id="ped49" depart="220.50">
        <walk from="L191" to="L191"/>
    </person>
    <person id="ped50" depart="225.00">
        <walk from="L131" to="L02"/>
    </person>
    <person id="ped51" depart="229.50">
        <walk from="L014" to="L6"/>
    </person>
    <person id="ped52" depart="234.00">
        <walk from="L110" to="L151"/>
    </person>
    <person id="ped53" depart="238.50">
        <walk from="L181" to="L16#H"/>
    </person>
    <person id="ped54" depart="243.00">
        <walk from="L8" to="L10"/>
    </person>
    <person id="ped55" depart="247.50">
        <walk from="L161" to="L9"/>
    </person>
    <person id="ped56" depart="252.00">
        <walk from="L011" to="L117"/>
    </person>
    <person id="ped57" depart="256.50">
        <walk from="L014" to="L151"/>
    </person>
    <person id="ped58" depart="261.00">
        <walk from="L19" to="L5"/>
    </person>
    <person id="ped59" depart="265.50">
        <walk from="L141" to="L12#H"/>
    </person>
    <person id="ped60" depart="270.00">
        <walk from="L61" to="L12"/>
    </person>
    <person id="ped61" depart="274.50">
        <walk from="L7" to="L81"/>
    </person>
    <person id="ped62" depart="279.00">
        <walk from="L101" to="L19"/>
    </person>
    <person id="ped63" depart="283.50">
        <walk from="L101" to="L8"/>
    </person>
    <person id="ped64" depart="288.00">
        <walk from="L41" to="L17"/>
    </person>
    <person id="ped65" depart="292.50">
        <walk from="L61" to="L16"/>
    </person>
    <person id="ped66" depart="297.00">
        <walk from="L41" to="L81"/>
    </person>
    <person id="ped67" depart="301.50">
        <walk from="L81" to="L08"/>
    </person>
    <person id="ped68" depart="306.00">
        <walk from="L07" to="L61"/>
    </person>
    <person id="ped69" depart="310.50">
        <walk from="L112" to="L101"/>
    </person>
    <person id="ped70" depart="315.00">
        <walk from="L15#H" to="L181"/>
    </person>
    <person id="ped71" depart="319.50">
        <walk from="L11#V" to="L71"/>
    </person>
    <person id="ped72" depart="324.00">
        <walk from="L112" to="L3"/>
    </person>
    <person id="ped73" depart="328.50">
        <walk from="L13#H" to="L17"/>
    </person>
    <person id="ped74" depart="333.00">
        <walk from="L191" to="L15"/>
    </person>
    <person id="ped75" depart="337.50">
        <walk from="L07" to="L100"/>
    </person>
    <person id="ped76" depart="342.00">
        <walk from="L19" to="L03"/>
    </person>
    <person id="ped77" depart="346.50">
        <walk from="L19" to="L12#H"/>
    </person>
    <person id="ped78" depart="351.00">
        <walk from="L12#H" to="L15"/>
    </person>
    <person id="ped79" depart="355.50">
        <walk from="L15#H" to="L6"/>
    </person>
    <person id="ped80" depart="360.00">
        <walk from="L09" to="L2"/>
    </person>
    <person id="ped81" depart="364.50">
        <walk from="L8" to="L119"/>
    </person>
    <person id="ped82" depart="369.00">
        <walk from="L06" to="L71"/>
    </person>
    <person id="ped83" depart="373.50">
        <walk from="L18" to="L09"/>
    </person>
    <person id="ped84" depart="378.00">
        <walk from="L016" to="L014"/>
    </person>
    <person id="ped85" depart="382.50">
        <walk from="L151" to="L61"/>
    </person>
    <person id="ped86" depart="387.00">
        <walk from="L13#H" to="L111#"/>
    </person>
    <person id="ped87" depart="391.50">
        <walk from="L11#" to="L100"/>
    </person>
    <person id="ped88" depart="396.00">
        <walk from="L117" to="L15#H"/>
    </person>
    <person id="ped89" depart="400.50">
        <walk from="L161" to="L09"/>
    </person>
    <person id="ped90" depart="405.00">
        <walk from="L112" to="L13"/>
    </person>
    <person id="ped91" depart="409.50">
        <walk from="L141" to="L51"/>
    </person>
    <person id="ped92" depart="414.00">
        <walk from="L15" to="L71"/>
    </person>
    <person id="ped93" depart="418.50">
        <walk from="L111#" to="L118"/>
    </person>
    <person id="ped94" depart="423.00">
        <walk from="L01" to="L19"/>
    </person>
    <person id="ped95" depart="427.50">
        <walk from="L116" to="L113"/>
    </person>
    <person id="ped96" depart="432.00">
        <walk from="L11#H" to="L09"/>
    </person>
    <person id="ped97" depart="436.50">
        <walk from="L31" to="L101"/>
    </person>
    <person id="ped98" depart="441.00">
        <walk from="L12" to="L71"/>
    </person>
    <person id="ped99" depart="445.50">
        <walk from="L19" to="L02"/>
    </person>
    <person id="ped100" depart="450.00">
        <walk from="L5" to="L51"/>
    </person>
    <person id="ped101" depart="454.50">
        <walk from="L111" to="L08"/>
    </person>
    <person id="ped102" depart="459.00">
        <walk from="L1" to="L03"/>
    </person>
    <person id="ped103" depart="463.50">
        <walk from="L119" to="L10"/>
    </person>
    <person id="ped104" depart="468.00">
        <walk from="L141" to="L7"/>
    </person>
    <person id="ped105" depart="472.50">
        <walk from="L9" to="L111#"/>
    </person>
    <person id="ped106" depart="477.00">
        <walk from="L115" to="L111"/>
    </person>
    <person id="ped107" depart="481.50">
        <walk from="L113" to="L91"/>
    </person>
    <person id="ped108" depart="486.00">
        <walk from="L2" to="L111"/>
    </person>
    <person id="ped109" depart="490.50">
        <walk from="L11#H" to="L61"/>
    </person>
    <person id="ped110" depart="495.00">
        <walk from="L15" to="L05"/>
    </person>
    <person id="ped111" depart="499.50">
        <walk from="L112" to="L8"/>
    </person>
    <person id="ped112" depart="504.00">
        <walk from="L09" to="L06"/>
    </person>
    <person id="ped113" depart="508.50">
        <walk from="L16" to="L11#"/>
    </person>
    <person id="ped114" depart="513.00">
        <walk from="L141" to="L51"/>
    </person>
    <person id="ped115" depart="517.50">
        <walk from="L71" to="L151"/>
    </person>
    <person id="ped116" depart="522.00">
        <walk from="L012" to="L113"/>
    </person>
    <person id="ped117" depart="526.50">
        <walk from="L141" to="L17"/>
    </person>
    <person id="ped118" depart="531.00">
        <walk from="L181" to="L118"/>
    </person>
    <person id="ped119" depart="535.50">
        <walk from="L71" to="L16#H"/>
    </person>
    <person id="ped120" depart="540.00">
        <walk from="L19" to="L118"/>
    </person>
    <person id="ped121" depart="544.50">
        <walk from="L112" to="L8"/>
    </person>
    <person id="ped122" depart="549.00">
        <walk from="L012" to="L51"/>
    </person>
    <person id="ped123" depart="553.50">
        <walk from="L141" to="L14#H"/>
    </person>
    <person id="ped124" depart="558.00">
        <walk from="L181" to="L12#H"/>
    </person>
    <person id="ped125" depart="562.50">
        <walk from="L03" to="L08"/>
    </person>
    <person id="ped126" depart="567.00">
        <walk from="L117" to="L111#"/>
    </person>
    <person id="ped127" depart="571.50">
        <walk from="L09" to="L2"/>
    </person>
    <person id="ped128" depart="576.00">
        <walk from="L15#H" to="L161"/>
    </person>
    <person id="ped129" depart="580.50">
        <walk from="L015" to="L116"/>
    </person>
    <person id="ped130" depart="585.00">
        <walk from="L11#" to="L11#V"/>
    </person>
    <person id="ped131" depart="589.50">
        <walk from="L151" to="L151"/>
    </person>
    <person id="ped132" depart="594.00">
        <walk from="L141" to="L16"/>
    </person>
    <person id="ped133" depart="598.50">
        <walk from="L13#H" to="L116"/>
    </person>
    <person id="ped134" depart="603.00">
        <walk from="L13#H" to="L91"/>
    </person>
    <person id="ped135" depart="607.50">
        <walk from="L12#H" to="L116"/>
    </person>
    <person id="ped136" depart="612.00">
        <walk from="L011" to="L1"/>
    </person>
    <person id="ped137" depart="616.50">
        <walk from="L07" to="L6"/>
    </person>
    <person id="ped138" depart="621.00">
        <walk from="L11#H" to="L51"/>
    </person>
    <person id="ped139" depart="625.50">
        <walk from="L014" to="L41"/>
    </person>
    <person id="ped140" depart="630.00">
        <walk from="L7" to="L118"/>
    </person>
    <person id="ped141" depart="634.50">
        <walk from="L11#H" to="L03"/>
    </person>
    <person id="ped142" depart="639.00">
        <walk from="L015" to="L013"/>
    </person>
    <person id="ped143" depart="643.50">
        <walk from="L9" to="L131"/>
    </person>
    <person id="ped144" depart="648.00">
        <walk from="L81" to="L100"/>
    </person>
    <person id="ped145" depart="652.50">
        <walk from="L17" to="L7"/>
    </person>
    <person id="ped146" depart="657.00">
        <walk from="L012" to="L41"/>
    </person>
    <person id="ped147" depart="661.50">
        <walk from="L15#H" to="L181"/>
    </person>
    <person id="ped148" depart="666.00">
        <walk from="L08" to="L116"/>
    </person>
    <person id="ped149" depart="670.50">
        <walk from="L41" to="L12"/>
    </person>
    <person id="ped150" depart="675.00">
        <walk from="L115" to="L10"/>
    </person>
    <person id="ped151" depart="679.50">
        <walk from="L09" to="L15"/>
    </person>
    <person id="ped152" depart="684.00">
        <walk from="L131" to="L014"/>
    </person>
    <person id="ped153" depart="688.50">
        <walk from="L111" to="L41"/>
    </person>
    <person id="ped154" depart="693.00">
        <walk from="L12#H" to="L010"/>
    </person>
    <person id="ped155" depart="697.50">
        <walk from="L161" to="L151"/>
    </person>
    <person id="ped156" depart="702.00">
        <walk from="L011" to="L81"/>
    </person>
    <person id="ped157" depart="706.50">
        <walk from="L08" to="L010"/>
    </person>
    <person id="ped158" depart="711.00">
        <walk from="L08" to="L81"/>
    </person>
    <person id="ped159" depart="715.50">
        <walk from="L16" to="L31"/>
    </person>
    <person id="ped160" depart="720.00">
        <walk from="L111" to="L1"/>
    </person>
    <person id="ped161" depart="724.50">
        <walk from="L118" to="L16"/>
    </person>
    <person id="ped162" depart="729.00">
        <walk from="L51" to="L8"/>
    </person>
    <person id="ped163" depart="733.50">
        <walk from="L5" to="L05"/>
    </person>
    <person id="ped164" depart="738.00">
        <walk from="L13#H" to="L151"/>
    </person>
    <person id="ped165" depart="742.50">
        <walk from="L010" to="L03"/>
    </person>
    <person id="ped166" depart="747.00">
        <walk from="L15#H" to="L141"/>
    </person>
    <person id="ped167" depart="751.50">
        <walk from="L014" to="L13#H"/>
    </person>
    <person id="ped168" depart="756.00">
        <walk from="L18" to="L5"/>
    </person>
    <person id="ped169" depart="760.50">
        <walk from="L013" to="L013"/>
    </person>
    <person id="ped170" depart="765.00">
        <walk from="L09" to="L119"/>
    </person>
    <person id="ped171" depart="769.50">
        <walk from="L191" to="L16"/>
    </person>
    <person id="ped172" depart="774.00">
        <walk from="L171" to="L8"/>
    </person>
    <person id="ped173" depart="778.50">
        <walk from="L113" to="L112"/>
    </person>
    <person id="ped174" depart="783.00">
        <walk from="L101" to="L18"/>
    </person>
    <person id="ped175" depart="787.50">
        <walk from="L101" to="L12"/>
    </person>
    <person id="ped176" depart="792.00">
        <walk from="L10" to="L08"/>
    </person>
    <person id="ped177" depart="796.50">
        <walk from="L81" to="L05"/>
    </person>
    <person id="ped178" depart="801.00">
        <walk from="L016" to="L06"/>
    </person>
    <person id="ped179" depart="805.50">
        <walk from="L13#H" to="L07"/>
    </person>
    <person id="ped180" depart="810.00">
        <walk from="L17" to="L13"/>
    </person>
    <person id="ped181" depart="814.50">
        <walk from="L7" to="L12#H"/>
    </person>
    <person id="ped182" depart="819.00">
        <walk from="L08" to="L111#"/>
    </person>
    <person id="ped183" depart="823.50">
        <walk from="L12" to="L09"/>
    </person>
    <person id="ped184" depart="828.00">
        <walk from="L010" to="L15"/>
    </person>
    <person id="ped185" depart="832.50">
        <walk from="L114" to="L115"/>
    </person>
    <person id="ped186" depart="837.00">
        <walk from="L014" to="L51"/>
    </person>
    <person id="ped187" depart="841.50">
        <walk from="L10" to="L115"/>
    </person>
    <person id="ped188" depart="846.00">
        <walk from="L012" to="L06"/>
    </person>
    <person id="ped189" depart="850.50">
        <walk from="L110" to="L81"/>
    </person>
    <person id="ped190" depart="855.00">
        <walk from="L05" to="L12"/>
    </person>
    <person id="ped191" depart="859.50">
        <walk from="L151" to="L191"/>
    </person>
    <person id="ped192" depart="864.00">
        <walk from="L016" to="L31"/>
    </person>
    <person id="ped193" depart="868.50">
        <walk from="L61" to="L6"/>
    </person>
    <person id="ped194" depart="873.00">
        <walk from="L17" to="L12#H"/>
    </person>
    <person id="ped195" depart="877.50">
        <walk from="L7" to="L161"/>
    </person>
    <person id="ped196" depart="882.00">
        <walk from="L100" to="L16"/>
    </person>
    <person id="ped197" depart="886.50">
        <walk from="L013" to="L15#H"/>
    </person>
    <person id="ped198" depart="891.00">
        <walk from="L011" to="L010"/>
    </person>
    <person id="ped199" depart="895.50">
        <walk from="L111#" to="L2"/>
    </person>
    <person id="ped200" depart="900.00">
        <walk from="L14#H" to="L118"/>
    </person>
    <person id="ped201" depart="904.50">
        <walk from="L115" to="L117"/>
    </person>
    <person id="ped202" depart="909.00">
        <walk from="L15#H" to="L8"/>
    </person>
    <person id="ped203" depart="913.50">
        <walk from="L31" to="L7"/>
    </person>
    <person id="ped204" depart="918.00">
        <walk from="L17" to="L13"/>
    </person>
    <person id="ped205" depart="922.50">
        <walk from="L8" to="L111#"/>
    </person>
    <person id="ped206" depart="927.00">
        <walk from="L81" to="L41"/>
    </person>
    <person id="ped207" depart="931.50">
        <walk from="L121" to="L03"/>
    </person>
    <person id="ped208" depart="936.00">
        <walk from="L112" to="L2"/>
    </person>
    <person id="ped209" depart="940.50">
        <walk from="L15#H" to="L141"/>
    </person>
    <person id="ped210" depart="945.00">
        <walk from="L61" to="L12"/>
    </person>
    <person id="ped211" depart="949.50">
        <walk from="L10" to="L3"/>
    </person>
    <person id="ped212" depart="954.00">
        <walk from="L17" to="L013"/>
    </person>
    <person id="ped213" depart="958.50">
        <walk from="L11#H" to="L7"/>
    </person>
    <person id="ped214" depart="963.00">
        <walk from="L012" to="L07"/>
    </person>
    <person id="ped215" depart="967.50">
        <walk from="L016" to="L17"/>
    </person>
    <person id="ped216" depart="972.00">
        <walk from="L181" to="L014"/>
    </person>
    <person id="ped217" depart="976.50">
        <walk from="L09" to="L151"/>
    </person>
    <person id="ped218" depart="981.00">
        <walk from="L01" to="L1"/>
    </person>
    <person id="ped219" depart="985.50">
        <walk from="L151" to="L7"/>
    </person>
    <person id="ped220" depart="990.00">
        <walk from="L171" to="L115"/>
    </person>
    <person id="ped221" depart="994.50">
        <walk from="L010" to="L101"/>
    </person>
    <person id="ped222" depart="999.00">
        <walk from="L6" to="L015"/>
    </person>
    <person id="ped223" depart="1003.50">
        <walk from="L71" to="L171"/>
    </person>
    <person id="ped224" depart="1008.00">
        <walk from="L012" to="L13#H"/>
    </person>
    <person id="ped225" depart="1012.50">
        <walk from="L12" to="L09"/>
    </person>
    <person id="ped226" depart="1017.00">
        <walk from="L112" to="L1"/>
    </person>
    <person id="ped227" depart="1021.50">
        <walk from="L015" to="L013"/>
    </person>
    <person id="ped228" depart="1026.00">
        <walk from="L06" to="L31"/>
    </person>
    <person id="ped229" depart="1030.50">
        <walk from="L09" to="L118"/>
    </person>
    <person id="ped230" depart="1035.00">
        <walk from="L141" to="L111#"/>
    </person>
    <person id="ped231" depart="1039.50">
        <walk from="L101" to="L2"/>
    </person>
    <person id="ped232" depart="1044.00">
        <walk from="L141" to="L118"/>
    </person>
    <person id="ped233" depart="1048.50">
        <walk from="L118" to="L116"/>
    </person>
    <person id="ped234" depart="1053.00">
        <walk from="L03" to="L119"/>
    </person>
    <person id="ped235" depart="1057.50">
        <walk from="L118" to="L101"/>
    </person>
    <person id="ped236" depart="1062.00">
        <walk from="L21" to="L012"/>
    </person>
    <person id="ped237" depart="1066.50">
        <walk from="L121" to="L110"/>
    </person>
    <person id="ped238" depart="1071.00">
        <walk from="L91" to="L14#H"/>
    </person>
    <person id="ped239" depart="1075.50">
        <walk from="L110" to="L08"/>
    </person>
    <person id="ped240" depart="1080.00">
        <walk from="L81" to="L8"/>
    </person>
    <person id="ped241" depart="1084.50">
        <walk from="L13#H" to="L111#"/>
    </person>
    <person id="ped242" depart="1089.00">
        <walk from="L5" to="L110"/>
    </person>
    <person id="ped243" depart="1093.50">
        <walk from="L141" to="L03"/>
    </person>
    <person id="ped244" depart="1098.00">
        <walk from="L61" to="L91"/>
    </person>
    <person id="ped245" depart="1102.50">
        <walk from="L0100" to="L06"/>
    </person>
    <person id="ped246" depart="1107.00">
        <walk from="L014" to="L91"/>
    </person>
    <person id="ped247" depart="1111.50">
        <walk from="L012" to="L15#H"/>
    </person>
    <person id="ped248" depart="1116.00">
        <walk from="L141" to="L151"/>
    </person>
    <person id="ped249" depart="1120.50">
        <walk from="L01" to="L09"/>
    </person>
    <person id="ped250" depart="1125.00">
        <walk from="L100" to="L11#"/>
    </person>
    <person id="ped251" depart="1129.50">
        <walk from="L12#H" to="L101"/>
    </person>
    <person id="ped252" depart="1134.00">
        <walk from="L114" to="L010"/>
    </person>
    <person id="ped253" depart="1138.50">
        <walk from="L115" to="L119"/>
    </person>
    <person id="ped254" depart="1143.00">
        <walk from="L51" to="L17"/>
    </person>
    <person id="ped255" depart="1147.50">
        <walk from="L12" to="L12"/>
    </person>
    <person id="ped256" depart="1152.00">
        <walk from="L016" to="L6"/>
    </person>
    <person id="ped257" depart="1156.50">
        <walk from="L19" to="L61"/>
    </person>
    <person id="ped258" depart="1161.00">
        <walk from="L13" to="L014"/>
    </person>
    <person id="ped259" depart="1165.50">
        <walk from="L13#H" to="L14#H"/>
    </person>
    <person id="ped260" depart="1170.00">
        <walk from="L2" to="L131"/>
    </person>
    <person id="ped261" depart="1174.50">
        <walk from="L81" to="L161"/>
    </person>
    <person id="ped262" depart="1179.00">
        <walk from="L81" to="L118"/>
    </person>
    <person id="ped263" depart="1183.50">
        <walk from="L11#H" to="L151"/>
    </person>
    <person id="ped264" depart="1188.00">
        <walk from="L015" to="L15#H"/>
    </person>
    <person id="ped265" depart="1192.50">
        <walk from="L015" to="L011"/>
    </person>
    <person id="ped266" depart="1197.00">
        <walk from="L11#H" to="L18"/>
    </person>
    <person id="ped267" depart="1201.50">
        <walk from="L08" to="L41"/>
    </person>
    <person id="ped268" depart="1206.00">
        <walk from="L101" to="L141"/>
    </person>
    <person id="ped269" depart="1210.50">
        <walk from="L12#H" to="L113"/>
    </person>
    <person id="ped270" depart="1215.00">
        <walk from="L41" to="L05"/>
    </person>
    <person id="ped271" depart="1219.50">
        <walk from="L07" to="L100"/>
    </person>
    <person id="ped272" depart="1224.00">
        <walk from="L151" to="L14#H"/>
    </person>
    <person id="ped273" depart="1228.50">
        <walk from="L011" to="L41"/>
    </person>
    <person id="ped274" depart="1233.00">
        <walk from="L12#H" to="L011"/>
    </person>
    <person id="ped275" depart="1237.50">
        <walk from="L17" to="L016"/>
    </person>
    <person id="ped276" depart="1242.00">
        <walk from="L16" to="L131"/>
    </person>
    <person id="ped277" depart="1246.50">
        <walk from="L81" to="L07"/>
    </person>
    <person id="ped278" depart="1251.00">
        <walk from="L118" to="L171"/>
    </person>
    <person id="ped279" depart="1255.50">
        <walk from="L09" to="L3"/>
    </person>
    <person id="ped280" depart="1260.00">
        <walk from="L18" to="L31"/>
    </person>
    <person id="ped281" depart="1264.50">
        <walk from="L51" to="L16"/>
    </person>
    <person id="ped282" depart="1269.00">
        <walk from="L151" to="L10"/>
    </person>
    <person id="ped283" depart="1273.50">
        <walk from="L7" to="L21"/>
    </person>
    <person id="ped284" depart="1278.00">
        <walk from="L51" to="L17"/>
    </person>
    <person id="ped285" depart="1282.50">
        <walk from="L113" to="L115"/>
    </person>
    <person id="ped286" depart="1287.00">
        <walk from="L113" to="L115"/>
    </person>
    <person id="ped287" depart="1291.50">
        <walk from="L171" to="L14#H"/>
    </person>
    <person id="ped288" depart="1296.00">
        <walk from="L141" to="L3"/>
    </person>
    <person id="ped289" depart="1300.50">
        <walk from="L110" to="L01"/>
    </person>
    <person id="ped290" depart="1305.00">
        <walk from="L013" to="L5"/>
    </person>
    <person id="ped291" depart="1309.50">
        <walk from="L112" to="L8"/>
    </person>
    <person id="ped292" depart="1314.00">
        <walk from="L16" to="L11#H"/>
    </person>
    <person id="ped293" depart="1318.50">
        <walk from="L161" to="L19"/>
    </person>
    <person id="ped294" depart="1323.00">
        <walk from="L191" to="L6"/>
    </person>
    <person id="ped295" depart="1327.50">
        <walk from="L012" to="L11#"/>
    </person>
    <person id="ped296" depart="1332.00">
        <walk from="L112" to="L011"/>
    </person>
    <person id="ped297" depart="1336.50">
        <walk from="L71" to="L11#"/>
    </person>
    <person id="ped298" depart="1341.00">
        <walk from="L118" to="L110"/>
    </person>
    <person id="ped299" depart="1345.50">
        <walk from="L6" to="L8"/>
    </person>
    <person id="ped300" depart="1350.00">
        <walk from="L17" to="L7"/>
    </person>
    <person id="ped301" depart="1354.50">
        <walk from="L6" to="L12#H"/>
    </person>
    <person id="ped302" depart="1359.00">
        <walk from="L01" to="L01"/>
    </person>
    <person id="ped303" depart="1363.50">
        <walk from="L9" to="L131"/>
    </person>
    <person id="ped304" depart="1368.00">
        <walk from="L13#H" to="L15"/>
    </person>
    <person id="ped305" depart="1372.50">
        <walk from="L13#H" to="L118"/>
    </person>
    <person id="ped306" depart="1377.00">
        <walk from="L08" to="L19"/>
    </person>
    <person id="ped307" depart="1381.50">
        <walk from="L011" to="L13"/>
    </person>
    <person id="ped308" depart="1386.00">
        <walk from="L91" to="L11#H"/>
    </person>
    <person id="ped309" depart="1390.50">
        <walk from="L121" to="L010"/>
    </person>
    <person id="ped310" depart="1395.00">
        <walk from="L61" to="L141"/>
    </person>
    <person id="ped311" depart="1399.50">
        <walk from="L016" to="L71"/>
    </person>
    <person id="ped312" depart="1404.00">
        <walk from="L10" to="L010"/>
    </person>
    <person id="ped313" depart="1408.50">
        <walk from="L41" to="L011"/>
    </person>
    <person id="ped314" depart="1413.00">
        <walk from="L09" to="L110"/>
    </person>
    <person id="ped315" depart="1417.50">
        <walk from="L12#H" to="L16#H"/>
    </person>
    <person id="ped316" depart="1422.00">
        <walk from="L81" to="L12"/>
    </person>
    <person id="ped317" depart="1426.50">
        <walk from="L014" to="L6"/>
    </person>
    <person id="ped318" depart="1431.00">
        <walk from="L10" to="L2"/>
    </person>
    <person id="ped319" depart="1435.50">
        <walk from="L6" to="L141"/>
    </person>
    <person id="ped320" depart="1440.00">
        <walk from="L110" to="L121"/>
    </person>
    <person id="ped321" depart="1444.50">
        <walk from="L171" to="L014"/>