<nodes>
  <node id="1" x="751" y="657" />
  <node id="2" x="757" y="457" />
  <node id="3" x="754" y="657" />
  <node id="4" x="760" y="457" />
  <node id="5" x="758" y="657" />
  <node id="6" x="764" y="457" />
  <node id="7" x="761" y="657" />
  <node id="8" x="767" y="457" />
</nodes>