<routes>
    <vTypeDistribution id="typeVehicleDistribution">
        <vType id="Car" departSpeed="max" accel="3" decel="4.5" length="3.5" maxSpeed="17.88" speedDev="0.1" sigma="0.2" minGap="0.3" probability="0.6"/>
        <vType id="Truck" accel="2.0" decel="4" length="4.41" maxSpeed="17.88" speedDev="0.1" sigma="0.2" minGap="0.3" probability="0.2"/>
        <vType id="Bus" accel="2.0" decel="4" length="5" maxSpeed="17.88" speedDev="0.1" sigma="0.2" minGap="0.3" probability="0.2"/>
    </vTypeDistribution>
    <flow id="flowA" color="0,0,1" begin="0" end= "3000" probability="0.98" type="typeVehicleDistribution" departPos="random">
        <route edges="laneA"/>
    </flow>    
    <flow id="flowB" color="0,1,0"  begin="0" end= "3000" probability="0.98" type="typeVehicleDistribution" departPos="random">
        <route edges="laneB"/>
    </flow>    
    <flow id="flowC" color="0,1,1"  begin="0" end= "3000" probability="0.98" type="typeVehicleDistribution" departPos="random">
        <route edges="laneC"/>
    </flow>    
    <flow id="flowD" color="1,0,0"  begin="0" end= "3000" probability="0.98" type="typeVehicleDistribution" departPos="random">
        <route edges="laneD"/>
    </flow>    
</routes>