<?xml version="1.0" encoding="UTF-8"?>

<!-- generated on 01/30/18 07:08:14 by SUMO netconvert Version 0.32.0
<?xml version="1.0" encoding="UTF-8"?>

<configuration xmlns:xsi="http://www.w3.org/2001/XMLSchema-instance" xsi:noNamespaceSchemaLocation="http://sumo.dlr.de/xsd/netconvertConfiguration.xsd">

    <input>
        <node-files value="ita.nod.xml"/>
        <edge-files value="ita.edg.xml"/>
    </input>

    <output>
        <output-file value="ita.net.xml"/>
    </output>

</configuration>
-->

<net version="0.27" xmlns:xsi="http://www.w3.org/2001/XMLSchema-instance" xsi:noNamespaceSchemaLocation="http://sumo.dlr.de/xsd/net_file.xsd">

    <location netOffset="-741.00,-470.00" convBoundary="0.00,0.00,27.00,175.00" origBoundary="741.00,470.00,768.00,645.00" projParameter="!"/>

    <edge id="laneA" from="1" to="2" priority="-1">
        <lane id="laneA_0" index="0" speed="13.90" length="175.35" shape="14.35,174.90 25.35,-0.10"/>
    </edge>
    <edge id="laneB" from="4" to="3" priority="-1">
        <lane id="laneB_0" index="0" speed="13.90" length="175.35" shape="12.65,0.10 1.65,175.10"/>
    </edge>

    <junction id="1" type="dead_end" x="16.00" y="175.00" incLanes="" intLanes="" shape="15.95,175.00 12.76,174.80"/>
    <junction id="2" type="dead_end" x="27.00" y="0.00" incLanes="laneA_0" intLanes="" shape="23.76,-0.20 26.95,-0.00"/>
    <junction id="3" type="dead_end" x="0.00" y="175.00" incLanes="laneB_0" intLanes="" shape="3.24,175.20 0.05,175.00"/>
    <junction id="4" type="dead_end" x="11.00" y="0.00" incLanes="" intLanes="" shape="11.05,0.00 14.24,0.20"/>

</net>
