<nodes>
    <node id="1" x="757" y="645" />
    <node id="2" x="768" y="470" />
    <node id="3" x="741" y="645" />
    <node id="4" x="752" y="470" />
</nodes>