<nodes>
    <node id="1" x="767.75" y="470.0" />
    <node id="2" x="760.0" y="645" />
    <node id="3" x="757.25" y="470" />
    <node id="4" x="749.5" y="645" />
</nodes>