<nodes>
    <node id="1" x="758.5" y="460" />
    <node id="2" x="744.5" y="660" />
    <node id="3" x="761.5" y="460" />
    <node id="4" x="747.5" y="660" />
    <node id="5" x="766.5" y="460" />
    <node id="6" x="752.5" y="660" />
    <node id="7" x="769.5" y="460" />
    <node id="8" x="755.5" y="660" />
</nodes>
