<?xml version="1.0" encoding="UTF-8"?>

<!-- generated on 01/30/18 09:27:50 by SUMO netconvert Version 0.32.0
<?xml version="1.0" encoding="UTF-8"?>

<configuration xmlns:xsi="http://www.w3.org/2001/XMLSchema-instance" xsi:noNamespaceSchemaLocation="http://sumo.dlr.de/xsd/netconvertConfiguration.xsd">

    <input>
        <node-files value="ita.nod.xml"/>
        <edge-files value="ita.edg.xml"/>
    </input>

    <output>
        <output-file value="ita.net.xml"/>
    </output>

</configuration>
-->

<net version="0.27" xmlns:xsi="http://www.w3.org/2001/XMLSchema-instance" xsi:noNamespaceSchemaLocation="http://sumo.dlr.de/xsd/net_file.xsd">

    <location netOffset="-751.00,-457.00" convBoundary="0.00,0.00,16.00,200.00" origBoundary="751.00,457.00,767.00,657.00" projParameter="!"/>

    <edge id="laneA" from="2" to="1" priority="-1">
        <lane id="laneA_0" index="0" speed="13.90" length="200.09" shape="7.65,0.05 1.65,200.05"/>
    </edge>
    <edge id="laneB" from="4" to="3" priority="-1">
        <lane id="laneB_0" index="0" speed="13.90" length="200.09" shape="10.65,0.05 4.65,200.05"/>
    </edge>
    <edge id="laneC" from="5" to="6" priority="-1">
        <lane id="laneC_0" index="0" speed="13.90" length="200.09" shape="5.35,199.95 11.35,-0.05"/>
    </edge>
    <edge id="laneD" from="7" to="8" priority="-1">
        <lane id="laneD_0" index="0" speed="13.90" length="200.09" shape="8.35,199.95 14.35,-0.05"/>
    </edge>

    <junction id="1" type="dead_end" x="0.00" y="200.00" incLanes="laneA_0" intLanes="" shape="3.25,200.10 0.05,200.00"/>
    <junction id="2" type="dead_end" x="6.00" y="0.00" incLanes="" intLanes="" shape="6.05,0.00 9.25,0.10"/>
    <junction id="3" type="dead_end" x="3.00" y="200.00" incLanes="laneB_0" intLanes="" shape="6.25,200.10 3.05,200.00"/>
    <junction id="4" type="dead_end" x="9.00" y="0.00" incLanes="" intLanes="" shape="9.05,0.00 12.25,0.10"/>
    <junction id="5" type="dead_end" x="7.00" y="200.00" incLanes="" intLanes="" shape="6.95,200.00 3.75,199.90"/>
    <junction id="6" type="dead_end" x="13.00" y="0.00" incLanes="laneC_0" intLanes="" shape="9.75,-0.10 12.95,-0.00"/>
    <junction id="7" type="dead_end" x="10.00" y="200.00" incLanes="" intLanes="" shape="9.95,200.00 6.75,199.90"/>
    <junction id="8" type="dead_end" x="16.00" y="0.00" incLanes="laneD_0" intLanes="" shape="12.75,-0.10 15.95,-0.00"/>

</net>
