<?xml version="1.0" encoding="UTF-8"?>
<nodes xmlns:xsi="http://www.w3.org/2001/XMLSchema-instance" xsi:noNamespaceSchemaLocation="http://sumo.dlr.de/xsd/nodes_file.xsd">
   <node id="A" x="-1000.0" y="1000.0" />
   <node id="B" x="3000.0" y="1000.0" />
   <node id="C" x="-1000.0" y="0.0" />
   <node id="D" x="+3000.0" y="0.0" />
   <node id="1" x="+1000.0" y="1000.0" />
   <node id="2" x="+1000.0" y="0.0" />
</nodes>