<?xml version="1.0" encoding="UTF-8"?>

<!-- generated on 09/25/18 12:38:55 by SUMO netconvert Version 0.32.0
<?xml version="1.0" encoding="UTF-8"?>

<configuration xmlns:xsi="http://www.w3.org/2001/XMLSchema-instance" xsi:noNamespaceSchemaLocation="http://sumo.dlr.de/xsd/netconvertConfiguration.xsd">

    <input>
        <node-files value="seasonal.nod.xml"/>
        <edge-files value="seasonal.edg.xml"/>
        <connection-files value="seasonal.con.xml"/>
    </input>

    <output>
        <output-file value="seasonal.net.xml"/>
    </output>

</configuration>
-->

<net version="0.27" xmlns:xsi="http://www.w3.org/2001/XMLSchema-instance" xsi:noNamespaceSchemaLocation="http://sumo.dlr.de/xsd/net_file.xsd">

    <location netOffset="-658.82,-358.76" convBoundary="0.00,0.00,181.26,317.14" origBoundary="658.82,358.76,840.08,675.90" projParameter="!"/>

    <edge id=":1_0" function="internal">
        <lane id=":1_0_0" index="0" speed="13.90" length="16.02" shape="96.70,321.42 80.70,321.45"/>
        <lane id=":1_0_1" index="1" speed="13.90" length="16.02" shape="96.71,318.12 80.67,318.15"/>
    </edge>
    <edge id=":1_2" function="internal">
        <lane id=":1_2_0" index="0" speed="13.90" length="16.24" shape="96.71,318.12 92.27,317.47 89.20,315.53 87.50,312.33 87.17,307.85"/>
    </edge>
    <edge id=":1_3" function="internal">
        <lane id=":1_3_0" index="0" speed="13.90" length="5.08" shape="93.75,308.31 93.85,309.71 94.39,310.71 95.35,311.32 96.74,311.52"/>
    </edge>
    <edge id=":1_4" function="internal">
        <lane id=":1_4_0" index="0" speed="13.90" length="15.74" shape="90.46,308.08 89.59,312.46 87.66,315.60 84.69,317.49 80.67,318.15"/>
    </edge>
    <edge id=":1_5" function="internal">
        <lane id=":1_5_0" index="0" speed="13.90" length="5.70" shape="80.62,311.55 81.94,311.30 82.93,310.56 83.57,309.33 83.88,307.62"/>
    </edge>
    <edge id=":1_6" function="internal">
        <lane id=":1_6_0" index="0" speed="13.90" length="16.10" shape="80.62,311.55 96.74,311.52"/>
        <lane id=":1_6_1" index="1" speed="13.90" length="16.10" shape="80.65,314.85 96.72,314.82"/>
    </edge>
    <edge id=":2_0" function="internal">
        <lane id=":2_0_0" index="0" speed="13.90" length="12.94" shape="112.82,59.42 112.01,60.71 111.32,63.24 110.74,66.99 110.29,71.97"/>
    </edge>
    <edge id=":2_1" function="internal">
        <lane id=":2_1_0" index="0" speed="13.90" length="18.39" shape="112.82,59.42 108.38,62.70 105.15,64.68 101.76,66.41 96.84,68.97"/>
        <lane id=":2_1_1" index="1" speed="13.90" length="18.39" shape="110.80,56.81 106.48,59.99 103.34,61.91 100.05,63.59 95.27,66.07"/>
    </edge>
    <edge id=":2_3" function="internal">
        <lane id=":2_3_0" index="0" speed="13.90" length="17.31" shape="92.13,60.27 96.62,57.94 99.72,56.37 102.68,54.59 106.75,51.60"/>
        <lane id=":2_3_1" index="1" speed="13.90" length="17.31" shape="93.70,63.17 98.33,60.76 101.53,59.14 104.58,57.29 108.77,54.21"/>
    </edge>
    <edge id=":2_5" function="internal">
        <lane id=":2_5_0" index="0" speed="13.90" length="22.08" shape="93.70,63.17 99.95,60.77 104.25,61.40 106.60,65.05 107.00,71.73"/>
    </edge>
    <edge id=":2_6" function="internal">
        <lane id=":2_6_0" index="0" speed="13.90" length="5.93" shape="100.41,71.27 100.31,69.48 99.68,68.50 98.52,68.33 96.84,68.97"/>
    </edge>
    <edge id=":2_7" function="internal">
        <lane id=":2_7_0" index="0" speed="13.90" length="18.39" shape="103.71,71.50 104.39,65.13 105.47,60.12 106.93,56.48 108.77,54.21"/>
    </edge>
    <edge id=":A_0" function="internal">
        <lane id=":A_0_0" index="0" speed="13.90" length="4.82" shape="0.01,318.79 -1.23,317.97 -1.65,317.15 -1.24,316.32 -0.01,315.49"/>
    </edge>
    <edge id=":B_0" function="internal">
        <lane id=":B_0_0" index="0" speed="13.90" length="4.82" shape="164.40,315.08 165.63,315.91 166.04,316.74 165.62,317.56 164.38,318.38"/>
    </edge>
    <edge id=":C_0" function="internal">
        <lane id=":C_0_0" index="0" speed="13.90" length="4.82" shape="5.04,100.17 3.70,99.53 3.18,98.77 3.47,97.89 4.58,96.91"/>
    </edge>
    <edge id=":D_0" function="internal">
        <lane id=":D_0_0" index="0" speed="13.90" length="3.55" shape="44.51,97.32 43.43,97.89 42.65,98.22 41.82,98.42 40.61,98.60"/>
        <lane id=":D_0_1" index="1" speed="13.90" length="3.55" shape="42.94,94.41 42.17,94.82 41.61,95.06 41.02,95.20 40.16,95.33"/>
    </edge>
    <edge id=":D_2" function="internal">
        <lane id=":D_2_0" index="0" speed="13.90" length="2.65" shape="42.94,94.41 41.46,94.28 40.70,93.75 40.70,93.51"/>
    </edge>
    <edge id=":D_6" function="internal">
        <lane id=":D_6_0" index="0" speed="13.90" length="2.17" shape="40.70,93.51 40.67,92.83 41.37,91.51"/>
    </edge>
    <edge id=":D_3" function="internal">
        <lane id=":D_3_0" index="0" speed="13.90" length="1.17" shape="39.26,88.79 39.42,88.76 39.54,88.74 39.65,88.69 39.80,88.61"/>
        <lane id=":D_3_1" index="1" speed="13.90" length="1.17" shape="39.71,92.06 40.22,91.98 40.57,91.90 40.91,91.76 41.37,91.51"/>
    </edge>
    <edge id=":D_5" function="internal">
        <lane id=":D_5_0" index="0" speed="13.90" length="2.29" shape="39.71,92.06 41.04,92.71 41.50,93.37"/>
    </edge>
    <edge id=":D_7" function="internal">
        <lane id=":D_7_0" index="0" speed="13.90" length="2.53" shape="41.50,93.37 41.57,93.47 41.27,94.34 40.16,95.33"/>
    </edge>
    <edge id=":E_0" function="internal">
        <lane id=":E_0_0" index="0" speed="13.90" length="4.82" shape="180.25,-1.30 181.73,-1.41 182.56,-1.01 182.74,-0.11 182.27,1.30"/>
    </edge>

    <edge id="H1" from="A" to="1" priority="3">
        <lane id="H1_0" index="0" speed="13.90" length="80.66" shape="-0.04,312.19 80.62,311.55"/>
        <lane id="H1_1" index="1" speed="13.90" length="80.66" shape="-0.01,315.49 80.65,314.85"/>
    </edge>
    <edge id="H10" from="E" to="2" priority="3">
        <lane id="H10_0" index="0" speed="13.90" length="90.50" shape="184.30,3.91 112.82,59.42"/>
        <lane id="H10_1" index="1" speed="13.90" length="90.50" shape="182.27,1.30 110.80,56.81"/>
    </edge>
    <edge id="H2" from="1" to="B" priority="1">
        <lane id="H2_0" index="0" speed="13.90" length="67.67" shape="96.74,311.52 164.41,311.78"/>
        <lane id="H2_1" index="1" speed="13.90" length="67.67" shape="96.72,314.82 164.40,315.08"/>
    </edge>
    <edge id="H3" from="1" to="A" priority="1">
        <lane id="H3_0" index="0" speed="13.90" length="80.66" shape="80.70,321.45 0.04,322.09"/>
        <lane id="H3_1" index="1" speed="13.90" length="80.66" shape="80.67,318.15 0.01,318.79"/>
    </edge>
    <edge id="H4" from="B" to="1" priority="1">
        <lane id="H4_0" index="0" speed="13.90" length="67.67" shape="164.37,321.68 96.70,321.42"/>
        <lane id="H4_1" index="1" speed="13.90" length="67.67" shape="164.38,318.38 96.71,318.12"/>
    </edge>
    <edge id="H5" from="C" to="D" priority="1">
        <lane id="H5_0" index="0" speed="13.90" length="35.45" shape="4.13,93.64 39.26,88.79"/>
        <lane id="H5_1" index="1" speed="13.90" length="35.45" shape="4.58,96.91 39.71,92.06"/>
    </edge>
    <edge id="H6" from="D" to="2" priority="1">
        <lane id="H6_0" index="0" speed="13.90" length="59.51" shape="39.80,88.61 92.13,60.27"/>
        <lane id="H6_1" index="1" speed="13.90" length="59.51" shape="41.37,91.51 93.70,63.17"/>
    </edge>
    <edge id="H7" from="2" to="E" priority="1">
        <lane id="H7_0" index="0" speed="13.90" length="90.50" shape="106.75,51.60 178.22,-3.91"/>
        <lane id="H7_1" index="1" speed="13.90" length="90.50" shape="108.77,54.21 180.25,-1.30"/>
    </edge>
    <edge id="H8" from="D" to="C" priority="1">
        <lane id="H8_0" index="0" speed="13.90" length="35.45" shape="40.61,98.60 5.49,103.44"/>
        <lane id="H8_1" index="1" speed="13.90" length="35.45" shape="40.16,95.33 5.04,100.17"/>
    </edge>
    <edge id="H9" from="2" to="D" priority="1">
        <lane id="H9_0" index="0" speed="13.90" length="59.51" shape="96.84,68.97 44.51,97.32"/>
        <lane id="H9_1" index="1" speed="13.90" length="59.51" shape="95.27,66.07 42.94,94.41"/>
    </edge>
    <edge id="V1" from="1" to="2" priority="2">
        <lane id="V1_0" index="0" speed="13.90" length="236.92" shape="83.88,307.62 100.41,71.27"/>
        <lane id="V1_1" index="1" speed="13.90" length="236.92" shape="87.17,307.85 103.71,71.50"/>
    </edge>
    <edge id="V2" from="2" to="1" priority="2">
        <lane id="V2_0" index="0" speed="13.90" length="236.92" shape="110.29,71.97 93.75,308.31"/>
        <lane id="V2_1" index="1" speed="13.90" length="236.92" shape="107.00,71.73 90.46,308.08"/>
    </edge>

    <junction id="1" type="priority" x="88.22" y="316.44" incLanes="H4_0 H4_1 V2_0 V2_1 H1_0 H1_1" intLanes=":1_0_0 :1_0_1 :1_2_0 :1_3_0 :1_4_0 :1_5_0 :1_6_0 :1_6_1" shape="96.69,323.02 96.74,309.92 95.35,308.42 82.28,307.51 80.61,309.95 80.71,323.05">
        <request index="0" response="00000000" foes="00010000" cont="0"/>
        <request index="1" response="00000000" foes="00010000" cont="0"/>
        <request index="2" response="11000000" foes="11010000" cont="0"/>
        <request index="3" response="11000000" foes="11000000" cont="0"/>
        <request index="4" response="11000111" foes="11000111" cont="0"/>
        <request index="5" response="00000000" foes="00000000" cont="0"/>
        <request index="6" response="00000000" foes="00011100" cont="0"/>
        <request index="7" response="00000000" foes="00011100" cont="0"/>
    </junction>
    <junction id="2" type="priority" x="106.29" y="58.23" incLanes="H10_0 H10_1 H6_0 H6_1 V1_0 V1_1" intLanes=":2_0_0 :2_1_0 :2_1_1 :2_3_0 :2_3_1 :2_5_0 :2_6_0 :2_7_0" shape="113.80,60.68 105.77,50.34 91.37,58.86 97.60,70.38 98.82,71.16 111.89,72.08">
        <request index="0" response="00000000" foes="00000000" cont="0"/>
        <request index="1" response="00000000" foes="11100000" cont="0"/>
        <request index="2" response="00000000" foes="11100000" cont="0"/>
        <request index="3" response="00000000" foes="10000000" cont="0"/>
        <request index="4" response="00000000" foes="10000000" cont="0"/>
        <request index="5" response="00000110" foes="10000110" cont="0"/>
        <request index="6" response="00000110" foes="00000110" cont="0"/>
        <request index="7" response="00111110" foes="00111110" cont="0"/>
    </junction>
    <junction id="A" type="priority" x="0.00" y="317.14" incLanes="H3_0 H3_1" intLanes=":A_0_0" shape="-0.00,317.09 0.05,323.69 0.00,317.19">
        <request index="0" response="0" foes="0" cont="0"/>
    </junction>
    <junction id="B" type="priority" x="164.39" y="316.73" incLanes="H2_0 H2_1" intLanes=":B_0_0" shape="164.39,316.78 164.41,310.18 164.39,316.68">
        <request index="0" response="0" foes="0" cont="0"/>
    </junction>
    <junction id="C" type="priority" x="4.81" y="98.54" incLanes="H8_0 H8_1" intLanes=":C_0_0" shape="4.80,98.49 5.71,105.03 4.82,98.59">
        <request index="0" response="0" foes="0" cont="0"/>
    </junction>
    <junction id="D" type="priority" x="41.11" y="93.53" incLanes="H9_0 H9_1 H5_0 H5_1" intLanes=":D_0_0 :D_0_1 :D_6_0 :D_3_0 :D_3_1 :D_7_0" shape="45.28,98.72 39.04,87.20 40.83,100.18">
        <request index="0" response="000000" foes="100000" cont="0"/>
        <request index="1" response="000000" foes="100000" cont="0"/>
        <request index="2" response="011000" foes="011000" cont="1"/>
        <request index="3" response="000000" foes="000100" cont="0"/>
        <request index="4" response="000000" foes="000100" cont="0"/>
        <request index="5" response="000011" foes="000011" cont="1"/>
    </junction>
    <junction id="E" type="priority" x="181.26" y="0.00" incLanes="H7_0 H7_1" intLanes=":E_0_0" shape="181.29,0.04 177.24,-5.17 181.23,-0.04">
        <request index="0" response="0" foes="0" cont="0"/>
    </junction>

    <junction id=":D_6_0" type="internal" x="40.70" y="93.51" incLanes=":D_2_0 H5_0 H5_1" intLanes=":D_3_0 :D_3_1"/>
    <junction id=":D_7_0" type="internal" x="41.50" y="93.37" incLanes=":D_5_0 H9_0 H9_1" intLanes=":D_0_0 :D_0_1"/>

    <connection from="H1" to="V1" fromLane="0" toLane="0" via=":1_5_0" dir="r" state="M"/>
    <connection from="H1" to="H2" fromLane="0" toLane="0" via=":1_6_0" dir="s" state="M"/>
    <connection from="H1" to="H2" fromLane="1" toLane="1" via=":1_6_1" dir="s" state="M"/>
    <connection from="H10" to="V2" fromLane="0" toLane="0" via=":2_0_0" dir="r" state="M"/>
    <connection from="H10" to="H9" fromLane="0" toLane="0" via=":2_1_0" dir="s" state="M"/>
    <connection from="H10" to="H9" fromLane="1" toLane="1" via=":2_1_1" dir="s" state="M"/>
    <connection from="H2" to="H4" fromLane="1" toLane="1" via=":B_0_0" dir="t" state="M"/>
    <connection from="H3" to="H1" fromLane="1" toLane="1" via=":A_0_0" dir="t" state="M"/>
    <connection from="H4" to="H3" fromLane="0" toLane="0" via=":1_0_0" dir="s" state="M"/>
    <connection from="H4" to="H3" fromLane="1" toLane="1" via=":1_0_1" dir="s" state="M"/>
    <connection from="H4" to="V1" fromLane="1" toLane="1" via=":1_2_0" dir="l" state="m"/>
    <connection from="H5" to="H6" fromLane="0" toLane="0" via=":D_3_0" dir="s" state="M"/>
    <connection from="H5" to="H6" fromLane="1" toLane="1" via=":D_3_1" dir="s" state="M"/>
    <connection from="H5" to="H8" fromLane="1" toLane="1" via=":D_5_0" dir="t" state="m"/>
    <connection from="H6" to="H7" fromLane="0" toLane="0" via=":2_3_0" dir="s" state="M"/>
    <connection from="H6" to="H7" fromLane="1" toLane="1" via=":2_3_1" dir="s" state="M"/>
    <connection from="H6" to="V2" fromLane="1" toLane="1" via=":2_5_0" dir="l" state="m"/>
    <connection from="H7" to="H10" fromLane="1" toLane="1" via=":E_0_0" dir="t" state="M"/>
    <connection from="H8" to="H5" fromLane="1" toLane="1" via=":C_0_0" dir="t" state="M"/>
    <connection from="H9" to="H8" fromLane="0" toLane="0" via=":D_0_0" dir="s" state="M"/>
    <connection from="H9" to="H8" fromLane="1" toLane="1" via=":D_0_1" dir="s" state="M"/>
    <connection from="H9" to="H6" fromLane="1" toLane="1" via=":D_2_0" dir="t" state="m"/>
    <connection from="V1" to="H9" fromLane="0" toLane="0" via=":2_6_0" dir="r" state="m"/>
    <connection from="V1" to="H7" fromLane="1" toLane="1" via=":2_7_0" dir="l" state="m"/>
    <connection from="V2" to="H2" fromLane="0" toLane="0" via=":1_3_0" dir="r" state="m"/>
    <connection from="V2" to="H3" fromLane="1" toLane="1" via=":1_4_0" dir="l" state="m"/>

    <connection from=":1_0" to="H3" fromLane="0" toLane="0" dir="s" state="M"/>
    <connection from=":1_0" to="H3" fromLane="1" toLane="1" dir="s" state="M"/>
    <connection from=":1_2" to="V1" fromLane="0" toLane="1" dir="l" state="M"/>
    <connection from=":1_3" to="H2" fromLane="0" toLane="0" dir="r" state="M"/>
    <connection from=":1_4" to="H3" fromLane="0" toLane="1" dir="l" state="M"/>
    <connection from=":1_5" to="V1" fromLane="0" toLane="0" dir="r" state="M"/>
    <connection from=":1_6" to="H2" fromLane="0" toLane="0" dir="s" state="M"/>
    <connection from=":1_6" to="H2" fromLane="1" toLane="1" dir="s" state="M"/>
    <connection from=":2_0" to="V2" fromLane="0" toLane="0" dir="r" state="M"/>
    <connection from=":2_1" to="H9" fromLane="0" toLane="0" dir="s" state="M"/>
    <connection from=":2_1" to="H9" fromLane="1" toLane="1" dir="s" state="M"/>
    <connection from=":2_3" to="H7" fromLane="0" toLane="0" dir="s" state="M"/>
    <connection from=":2_3" to="H7" fromLane="1" toLane="1" dir="s" state="M"/>
    <connection from=":2_5" to="V2" fromLane="0" toLane="1" dir="l" state="M"/>
    <connection from=":2_6" to="H9" fromLane="0" toLane="0" dir="r" state="M"/>
    <connection from=":2_7" to="H7" fromLane="0" toLane="1" dir="l" state="M"/>
    <connection from=":A_0" to="H1" fromLane="0" toLane="1" dir="t" state="M"/>
    <connection from=":B_0" to="H4" fromLane="0" toLane="1" dir="t" state="M"/>
    <connection from=":C_0" to="H5" fromLane="0" toLane="1" dir="t" state="M"/>
    <connection from=":D_0" to="H8" fromLane="0" toLane="0" dir="s" state="M"/>
    <connection from=":D_0" to="H8" fromLane="1" toLane="1" dir="s" state="M"/>
    <connection from=":D_2" to="H6" fromLane="0" toLane="1" via=":D_6_0" dir="t" state="m"/>
    <connection from=":D_6" to="H6" fromLane="0" toLane="1" dir="t" state="M"/>
    <connection from=":D_3" to="H6" fromLane="0" toLane="0" dir="s" state="M"/>
    <connection from=":D_3" to="H6" fromLane="1" toLane="1" dir="s" state="M"/>
    <connection from=":D_5" to="H8" fromLane="0" toLane="1" via=":D_7_0" dir="t" state="m"/>
    <connection from=":D_7" to="H8" fromLane="0" toLane="1" dir="t" state="M"/>
    <connection from=":E_0" to="H10" fromLane="0" toLane="1" dir="t" state="M"/>

</net>
