<?xml version="1.0" encoding="UTF-8"?>
<routes>
  <vTypeDistribution id="typeVehicleDistribution">
        <!--http://www.toyota.com.au/prius-v/specifications/prius-v-->
        <vType id="Car" departSpeed="max" accel="3" decel="4.5" length="4.645" width="1.775" height="1.59" maxSpeed="17.88" speedDev="0.1" sigma="0.2" minGap="0.3" probability="0.2"/>
        <!--http://www.rms.nsw.gov.au/business-industry/heavy-vehicles/road-access/general-access-vehicles.html-->
        <vType id="Truck" accel="2.0" decel="4" length="12.5" width="2.5" height="4.3" maxSpeed="17.88" speedDev="0.1" sigma="0.2" minGap="0.3" probability="0.18"/>
        <!--http://www.modenabus.com/286/119/products/school_bus_school_bus_iveco_9_metres.html-->
        <vType id="Bus" accel="2.0" decel="4" length="9" width="2.4" height="3.2" maxSpeed="17.88" speedDev="0.1" sigma="0.2" minGap="0.3" probability="0.2"/>
  </vTypeDistribution>
      <flow id="flow1" color="0,0,1" begin="0" end= "20" probability="0.18"  type="typeVehicleDistribution">
          <route edges="H1 H2"/>
      </flow>    
      <flow id="flow2" color="0,1,0"  begin="0" end= "20" probability="0.16"  type="typeVehicleDistribution">
          <route edges="H1 V1 H9 H8"/>
      </flow>    
      <flow id="flow3" color="0,1,1"  begin="0" end= "20" probability="0.16"  type="typeVehicleDistribution">
          <route edges="H1 V1 H7"/>
      </flow>    
      <flow id="flow4" color="1,0,0"  begin="0" end= "20" probability="0.18"  type="typeVehicleDistribution">
          <route edges="H4 H3"/>
      </flow>     
      <flow id="flow5" color="1,0,1" begin="0" end= "20" probability="0.16"  type="typeVehicleDistribution">
          <route edges="H4 V1 H9 H8"/>
      </flow>    
      <flow id="flow6" color="1,1,0"  begin="0" end= "20" probability="0.16"  type="typeVehicleDistribution">
          <route edges="H4 V1 H7"/>
      </flow>    
      <flow id="flow7" color="1,1,1"  begin="0" end= "20" probability="0.18"  type="typeVehicleDistribution">
          <route edges="H5 H6 H7"/>
      </flow>    
      <flow id="flow8" color="1,0.5,0"  begin="0" end= "20" probability="0.16"  type="typeVehicleDistribution">
          <route edges="H5 H6 V2 H3"/>
      </flow> 
      <flow id="flow9" color="0.5,0,1" begin="0" end= "20" probability="0.16"  type="typeVehicleDistribution">
          <route edges="H5 H6 V2 H2"/>
      </flow>    
      <flow id="flow10" color="0,1,0.5"  begin="0" end= "20" probability="0.18"  type="typeVehicleDistribution">
          <route edges="H10 H9 H8"/>
      </flow>    
      <flow id="flow11" color="1,0.5,0.1"  begin="0" end= "20" probability="0.16"  type="typeVehicleDistribution">
          <route edges="H10 V2 H2"/>
      </flow>    
      <flow id="flow12" color="1,0.5,1"  begin="0" end= "20" probability="0.16"  type="typeVehicleDistribution">
          <route edges="H10 V2 H3"/>
      </flow>        
      <flow id="flow13" color="0,0,1" begin="40" end= "80" probability="0.02"  type="typeVehicleDistribution">
          <route edges="H1 H2"/>
      </flow>    
      <flow id="flow14" color="0,1,0"  begin="40" end= "80" probability="0.01"  type="typeVehicleDistribution">
          <route edges="H1 V1 H9 H8"/>
      </flow>    
      <flow id="flow15" color="0,1,1"  begin="40" end= "80" probability="0.01"  type="typeVehicleDistribution">
          <route edges="H1 V1 H7"/>
      </flow>    
      <flow id="flow16" color="1,0,0"  begin="40" end= "80" probability="0.02"  type="typeVehicleDistribution">
          <route edges="H4 H3"/>
      </flow>     
      <flow id="flow17" color="1,0,1" begin="40" end= "80" probability="0.01"  type="typeVehicleDistribution">
          <route edges="H4 V1 H9 H8"/>
      </flow>    
      <flow id="flow18" color="1,1,0"  begin="40" end= "80" probability="0.01"  type="typeVehicleDistribution">
          <route edges="H4 V1 H7"/>
      </flow>    
      <flow id="flow19" color="1,1,1"  begin="40" end= "80" probability="0.02"  type="typeVehicleDistribution">
          <route edges="H5 H6 H7"/>
      </flow>    
      <flow id="flow20" color="1,0.5,0"  begin="40" end= "80" probability="0.01"  type="typeVehicleDistribution">
          <route edges="H5 H6 V2 H3"/>
      </flow> 
      <flow id="flow21" color="0.5,0,1" begin="40" end= "80" probability="0.01"  type="typeVehicleDistribution">
          <route edges="H5 H6 V2 H2"/>
      </flow>    
      <flow id="flow22" color="0,1,0.5"  begin="40" end= "80" probability="0.02"  type="typeVehicleDistribution">
          <route edges="H10 H9 H8"/>
      </flow>    
      <flow id="flow23" color="1,0.5,0.0001"  begin="40" end= "80" probability="0.01"  type="typeVehicleDistribution">
          <route edges="H10 V2 H2"/>
      </flow>    
      <flow id="flow24" color="1,0.5,1"  begin="40" end= "80" probability="0.01"  type="typeVehicleDistribution">
          <route edges="H10 V2 H3"/>
      </flow>    
      <flow id="flow25" color="0,0,1" begin="80" end= "100" probability="0.1"  type="typeVehicleDistribution">
          <route edges="H1 H2"/>
      </flow>    
      <flow id="flow26" color="0,1,0"  begin="80" end= "100" probability="0.2"  type="typeVehicleDistribution">
          <route edges="H1 V1 H9 H8"/>
      </flow>    
      <flow id="flow27" color="0,1,1"  begin="80" end= "100" probability="0.2"  type="typeVehicleDistribution">
          <route edges="H1 V1 H7"/>
      </flow>    
      <flow id="flow28" color="1,0,0"  begin="80" end= "100" probability="0.1"  type="typeVehicleDistribution">
          <route edges="H4 H3"/>
      </flow>     
      <flow id="flow29" color="1,0,1" begin="80" end= "100" probability="0.2"  type="typeVehicleDistribution">
          <route edges="H4 V1 H9 H8"/>
      </flow>    
      <flow id="flow30" color="1,1,0"  begin="80" end= "100" probability="0.2"  type="typeVehicleDistribution">
          <route edges="H4 V1 H7"/>
      </flow>    
      <flow id="flow31" color="1,1,1"  begin="80" end= "100" probability="0.1"  type="typeVehicleDistribution">
          <route edges="H5 H6 H7"/>
      </flow>    
      <flow id="flow32" color="1,0.5,0"  begin="80" end= "100" probability="0.2"  type="typeVehicleDistribution">
          <route edges="H5 H6 V2 H3"/>
      </flow> 
      <flow id="flow33" color="0.5,0,1" begin="80" end= "100" probability="0.2"  type="typeVehicleDistribution">
          <route edges="H5 H6 V2 H2"/>
      </flow>    
      <flow id="flow34" color="0,1,0.5"  begin="80" end= "100" probability="0.1"  type="typeVehicleDistribution">
          <route edges="H10 H9 H8"/>
      </flow>    
      <flow id="flow35" color="1,0.5,0.15"  begin="80" end= "100" probability="0.2"  type="typeVehicleDistribution">
          <route edges="H10 V2 H2"/>
      </flow>    
      <flow id="flow36" color="1,0.5,1"  begin="80" end= "100" probability="0.2"  type="typeVehicleDistribution">
          <route edges="H10 V2 H3"/>
      </flow>        
      <flow id="flow37" color="0,0,1" begin="120" end= "9000000000" probability="0.02"  type="typeVehicleDistribution">
          <route edges="H1 H2"/>
      </flow>    
      <flow id="flow38" color="0,1,0"  begin="120" end= "9000000000" probability="0.01"  type="typeVehicleDistribution">
          <route edges="H1 V1 H9 H8"/>
      </flow>    
      <flow id="flow39" color="0,1,1"  begin="120" end= "9000000000" probability="0.01"  type="typeVehicleDistribution">
          <route edges="H1 V1 H7"/>
      </flow>    
      <flow id="flow40" color="1,0,0"  begin="120" end= "9000000000" probability="0.02"  type="typeVehicleDistribution">
          <route edges="H4 H3"/>
      </flow>     
      <flow id="flow41" color="1,0,1" begin="120" end= "9000000000" probability="0.01"  type="typeVehicleDistribution">
          <route edges="H4 V1 H9 H8"/>
      </flow>    
      <flow id="flow42" color="1,1,0"  begin="120" end= "9000000000" probability="0.01"  type="typeVehicleDistribution">
          <route edges="H4 V1 H7"/>
      </flow>    
      <flow id="flow43" color="1,1,1"  begin="120" end= "9000000000" probability="0.02"  type="typeVehicleDistribution">
          <route edges="H5 H6 H7"/>
      </flow>    
      <flow id="flow44" color="1,0.5,0"  begin="120" end= "9000000000" probability="0.01"  type="typeVehicleDistribution">
          <route edges="H5 H6 V2 H3"/>
      </flow> 
      <flow id="flow45" color="0.5,0,1" begin="120" end= "9000000000" probability="0.01"  type="typeVehicleDistribution">
          <route edges="H5 H6 V2 H2"/>
      </flow>    
      <flow id="flow46" color="0,1,0.5"  begin="120" end= "9000000000" probability="0.02"  type="typeVehicleDistribution">
          <route edges="H10 H9 H8"/>
      </flow>    
      <flow id="flow47" color="1,0.5,0.0001"  begin="120" end= "9000000000" probability="0.01"  type="typeVehicleDistribution">
          <route edges="H10 V2 H2"/>
      </flow>    
      <flow id="flow48" color="1,0.5,1"  begin="120" end= "9000000000" probability="0.01"  type="typeVehicleDistribution">
          <route edges="H10 V2 H3"/>
      </flow>    
</routes>
