<?xml version="1.0" encoding="UTF-8"?>

<!-- generated on Thu Mar 29 15:19:08 2018 by SUMO netconvert Version 0.25.0
<?xml version="1.0" encoding="UTF-8"?>

<configuration xmlns:xsi="http://www.w3.org/2001/XMLSchema-instance" xsi:noNamespaceSchemaLocation="http://sumo.dlr.de/xsd/netconvertConfiguration.xsd">

    <input>
        <node-files value="quickstart.nod.xml"/>
        <edge-files value="quickstart.edg.xml"/>
    </input>

    <output>
        <output-file value="quickstart.net.xml"/>
    </output>

</configuration>
-->

<net version="0.25" xmlns:xsi="http://www.w3.org/2001/XMLSchema-instance" xsi:noNamespaceSchemaLocation="http://sumo.dlr.de/xsd/net_file.xsd">

    <location netOffset="-663.02,-305.62" convBoundary="0.00,0.00,190.71,475.07" origBoundary="663.02,305.62,853.73,780.69" projParameter="!"/>

    <edge id="R1" from="A" to="B" priority="1">
        <lane id="R1_0" index="0" speed="13.90" length="310.59" shape="40.46,36.68 14.20,346.16"/>
    </edge>
    <edge id="R2" from="C" to="D" priority="1">
        <lane id="R2_0" index="0" speed="13.90" length="250.66" shape="1.17,278.56 187.31,110.68"/>
    </edge>
    <edge id="R3" from="E" to="F" priority="1">
        <lane id="R3_0" index="0" speed="13.90" length="190.76" shape="-0.04,184.49 190.67,179.93"/>
    </edge>
    <edge id="R4" from="G" to="H" priority="1">
        <lane id="R4_0" index="0" speed="13.90" length="305.95" shape="114.69,77.79 89.57,382.71"/>
    </edge>
    <edge id="R5" from="I" to="J" priority="1">
        <lane id="R5_0" index="0" speed="13.90" length="486.80" shape="63.48,474.71 169.68,-0.36"/>
    </edge>
    <edge id="R6" from="K" to="L" priority="1">
        <lane id="R6_0" index="0" speed="13.90" length="164.40" shape="56.20,200.10 145.28,338.28"/>
    </edge>

    <junction id="A" type="unregulated" x="38.82" y="36.54" incLanes="" intLanes="" shape="38.87,36.54 42.06,36.81"/>
    <junction id="B" type="unregulated" x="12.56" y="346.02" incLanes="R1_0" intLanes="" shape="15.80,346.29 12.61,346.02"/>
    <junction id="C" type="unregulated" x="2.28" y="279.79" incLanes="" intLanes="" shape="2.25,279.75 0.10,277.38"/>
    <junction id="D" type="unregulated" x="188.42" y="111.91" incLanes="R2_0" intLanes="" shape="186.24,109.50 188.39,111.87"/>
    <junction id="E" type="unregulated" x="0.00" y="186.14" incLanes="" intLanes="" shape="-0.00,186.09 -0.08,182.89"/>
    <junction id="F" type="unregulated" x="190.71" y="181.58" incLanes="R3_0" intLanes="" shape="190.63,178.33 190.71,181.53"/>
    <junction id="G" type="unregulated" x="113.05" y="77.65" incLanes="" intLanes="" shape="113.10,77.65 116.29,77.92"/>
    <junction id="H" type="unregulated" x="87.93" y="382.57" incLanes="R4_0" intLanes="" shape="91.17,382.84 87.98,382.57"/>
    <junction id="I" type="unregulated" x="65.09" y="475.07" incLanes="" intLanes="" shape="65.04,475.06 61.92,474.36"/>
    <junction id="J" type="unregulated" x="171.29" y="0.00" incLanes="R5_0" intLanes="" shape="168.12,-0.71 171.24,-0.01"/>
    <junction id="K" type="unregulated" x="54.81" y="200.99" incLanes="" intLanes="" shape="54.85,200.96 57.54,199.23"/>
    <junction id="L" type="unregulated" x="143.89" y="339.17" incLanes="R6_0" intLanes="" shape="146.62,337.41 143.93,339.14"/>

</net>
