<?xml version="1.0" encoding="UTF-8"?>
<routes>
  <vTypeDistribution id="delivery_zone">
        <!--http://www.toyota.com.au/prius-v/specifications/prius-v-->
        <vType id="matrice" departSpeed="max" accel="4" decel="4.5" length="0.716" width="0.220" height="0.236" maxSpeed="23.00" speedDev="0.1" sigma="0.2" minGap="1" probability="0.1"/>
        <!--http://www.rms.nsw.gov.au/business-industry/heavy-vehicles/road-access/general-access-vehicles.html-->
        <vType id="amazon" accel="3.0" decel="4.5" length="0.914" width="0.914" height="0.336" maxSpeed="24.5" speedDev="0.1" sigma="0.2" minGap="1" probability="0.6"/>
        <!--http://www.modenabus.com/286/119/products/school_bus_school_bus_iveco_9_metres.html-->
        <vType id="phantom" accel="3.0" decel="4" length="0.290" width="0.290" height="0.196" maxSpeed="20.00" speedDev="0.1" sigma="0.2" minGap="1" probability="0.3"/>
  </vTypeDistribution>
  <vTypeDistribution id="domestic_zone">
        <!--http://www.toyota.com.au/prius-v/specifications/prius-v-->
        <vType id="matrice2" departSpeed="max" accel="4" decel="4.5" length="0.716" width="0.220" height="0.236" maxSpeed="23.00" speedDev="0.1" sigma="0.2" minGap="1" probability="0.2"/>
        <!--http://www.rms.nsw.gov.au/business-industry/heavy-vehicles/road-access/general-access-vehicles.html-->
        <vType id="amazon2" accel="3.0" decel="4.5" length="0.914" width="0.914" height="0.336" maxSpeed="24.5" speedDev="0.1" sigma="0.2" minGap="1" probability="0.3"/>
        <!--http://www.modenabus.com/286/119/products/school_bus_school_bus_iveco_9_metres.html-->
        <vType id="phantom2" accel="3.0" decel="4" length="0.290" width="0.290" height="0.196" maxSpeed="20.00" speedDev="0.1" sigma="0.2" minGap="1" probability="0.5"/>
  </vTypeDistribution>
  <vTypeDistribution id="agro_zone">
        <!--http://www.toyota.com.au/prius-v/specifications/prius-v-->
        <vType id="matrice3" departSpeed="max" accel="4" decel="4.5" length="0.716" width="0.220" height="0.236" maxSpeed="23.00" speedDev="0.1" sigma="0.2" minGap="1" probability="0.4"/>
        <!--http://www.rms.nsw.gov.au/business-industry/heavy-vehicles/road-access/general-access-vehicles.html-->
        <vType id="amazon3" accel="3.0" decel="4.5" length="0.914" width="0.914" height="0.336" maxSpeed="24.5" speedDev="0.1" sigma="0.2" minGap="1" probability="0.4"/>
        <!--http://www.modenabus.com/286/119/products/school_bus_school_bus_iveco_9_metres.html-->
        <vType id="phantom3" accel="3.0" decel="4" length="0.290" width="0.290" height="0.196" maxSpeed="20.00" speedDev="0.1" sigma="0.2" minGap="1" probability="0.2"/>
  </vTypeDistribution>
      
      <flow id="flow1" color="0,0,1" begin="0" end= "3000" probability="0.04"  type="delivery_zone">
          <route edges="R1"/>
      </flow>
      <flow id="flow2" color="0,1,0" begin="0" end= "3000" probability="0.04"  type="domestic_zone">
          <route edges="R2"/>
      </flow>
      <flow id="flow3" color="1,0,0" begin="0" end= "3000" probability="0.04"  type="domestic_zone">
          <route edges="R3"/>
      </flow>
      <flow id="flow4" color="0,1,1" begin="0" end= "3000" probability="0.04"  type="delivery_zone">
          <route edges="R4"/>
      </flow>
      <flow id="flow5" color="1,0,1" begin="0" end= "3000" probability="0.04"  type="agro_zone">
          <route edges="R5"/>
      </flow>
      <flow id="flow6" color="1,1,0" begin="0" end= "3000" probability="0.04"  type="delivery_zone">
          <route edges="R6"/>
      </flow>

   
</routes>
